                                  MODFLOW-2005     
      U.S. GEOLOGICAL SURVEY MODULAR FINITE-DIFFERENCE GROUND-WATER FLOW MODEL
                            VERSION 1.11.00 8/8/2013

 LIST FILE: supply2.lst
                         UNIT   10

 OPENING ..\data\supply.dis
 FILE TYPE:DIS   UNIT   11   STATUS:OLD    
 FORMAT:FORMATTED              ACCESS:SEQUENTIAL          

 OPENING ..\data\supply.ba6
 FILE TYPE:BAS6   UNIT   12   STATUS:OLD    
 FORMAT:FORMATTED              ACCESS:SEQUENTIAL          

 OPENING ..\data\supply_het.bc6
 FILE TYPE:BCF6   UNIT   13   STATUS:OLD    
 FORMAT:FORMATTED              ACCESS:SEQUENTIAL          

 OPENING ..\data\supply.rch
 FILE TYPE:RCH   UNIT   15   STATUS:OLD    
 FORMAT:FORMATTED              ACCESS:SEQUENTIAL          

 OPENING ..\data\supply2.sfr
 FILE TYPE:SFR   UNIT   16   STATUS:OLD    
 FORMAT:FORMATTED              ACCESS:SEQUENTIAL          

 OPENING ..\data\supply.oc
 FILE TYPE:OC   UNIT   17   STATUS:OLD    
 FORMAT:FORMATTED              ACCESS:SEQUENTIAL          

 OPENING ..\data\supply.pcg
 FILE TYPE:PCG   UNIT   18   STATUS:OLD    
 FORMAT:FORMATTED              ACCESS:SEQUENTIAL          

 OPENING supply2.wel
 FILE TYPE:WEL   UNIT   19   STATUS:OLD    
 FORMAT:FORMATTED              ACCESS:SEQUENTIAL          

 OPENING supply2sf.cbc
 FILE TYPE:DATA(BINARY)   UNIT   50   STATUS:UNKNOWN
 FORMAT:BINARY                 ACCESS:SEQUENTIAL          

 OPENING supply2hd.bhd
 FILE TYPE:DATA(BINARY)   UNIT   51   STATUS:UNKNOWN
 FORMAT:BINARY                 ACCESS:SEQUENTIAL          

 BAS -- BASIC PACKAGE, VERSION 7, 5/2/2005 INPUT READ FROM UNIT   12
 
 MODFLOW was compiled using uniform precision
 Precision of REAL and DOUBLE PRECISION variables:          15

 DISCRETIZATION INPUT DATA READ FROM UNIT   11
    1 LAYERS        25 ROWS        30 COLUMNS
   12 STRESS PERIOD(S) IN SIMULATION
 MODEL TIME UNIT IS DAYS
 MODEL LENGTH UNIT IS UNDEFINED
  Confining bed flag for each layer:
   0

                     DELR =   200.000    

                     DELC =   200.000    

 TOP ELEVATION OF LAYER 1 =  100.0000    

   MODEL LAYER BOTTOM EL. =   0.00000     FOR LAYER   1


 STRESS PERIOD     LENGTH       TIME STEPS     MULTIPLIER FOR DELT    SS FLAG
 ----------------------------------------------------------------------------
        1         92.00000          1                    1.500         TR
        2         91.00000          1                    1.500         TR
        3         91.00000          1                    1.500         TR
        4         91.00000          1                    1.500         TR
        5         92.00000          1                    1.500         TR
        6         91.00000          1                    1.500         TR
        7         91.00000          1                    1.500         TR
        8         91.00000          1                    1.500         TR
        9         92.00000          1                    1.500         TR
       10         91.00000          1                    1.500         TR
       11         91.00000          1                    1.500         TR
       12         91.00000          1                    1.500         TR

 TRANSIENT SIMULATION



 
 #MODOFC transient water supply sample problem                                   
 #                                                                               
 THE FREE FORMAT OPTION HAS BEEN SELECTED



                     BOUNDARY ARRAY FOR LAYER   1
 READING ON UNIT   12 WITH FORMAT: (20I4)              

 AQUIFER HEAD WILL BE SET TO   0.0000     AT ALL NO-FLOW NODES (IBOUND=0).



                       INITIAL HEAD FOR LAYER   1
 READING ON UNIT   12 WITH FORMAT: (10F13.0)           

 OUTPUT CONTROL IS SPECIFIED ONLY AT TIME STEPS FOR WHICH OUTPUT IS DESIRED
 COMPACT CELL-BY-CELL BUDGET FILES WILL BE WRITTEN
 HEAD PRINT FORMAT CODE IS  18    DRAWDOWN PRINT FORMAT CODE IS   0
 HEADS WILL BE SAVED ON UNIT   51    DRAWDOWNS WILL BE SAVED ON UNIT    0

 BCF -- BLOCK-CENTERED FLOW PACKAGE, VERSION 7, 5/2/2005
         INPUT READ FROM UNIT 13
 TRANSIENT SIMULATION
 HEAD AT CELLS THAT CONVERT TO DRY=   0.0000    
 WETTING CAPABILITY IS NOT ACTIVE
      LAYER  LAYER-TYPE CODE     INTERBLOCK T
      --------------------------------------------
         1            0          0 -- HARMONIC    

 COLUMN TO ROW ANISOTROPY =  1.000000    

     PRIMARY STORAGE COEF =  5.000000E-02 FOR LAYER   1



               TRANSMIS. ALONG ROWS FOR LAYER   1
 READING ON UNIT   13 WITH FORMAT: (FREE)              

 WEL -- WELL PACKAGE, VERSION 7, 5/2/2005 INPUT READ FROM UNIT   19
 # Well package input file written by MMProc
 No named parameters
 MAXIMUM OF      4 ACTIVE WELLS AT ONE TIME


     0 Well parameters

 RCH -- RECHARGE PACKAGE, VERSION 7, 5/2/2005 INPUT READ FROM UNIT   15
 No named parameters
 OPTION 1 -- RECHARGE TO TOP LAYER


     0 Recharge parameters

 SFR7 -- STREAMFLOW ROUTING PACKAGE, VERSION 1.0.7, 2013-01-15
         INPUT READ FROM UNIT  16
 #  Supply2 test problem for GWM-VI
 #  The eighth entry in the first data line is ISTCB2 -
 #    Setting this to a negative number indicates that
 #    streamflows out of the reach will be saved to a
 #    binary file.  The absolute value of ISTCB2 is the
 #    unit to which unformatted flows will be written.
 #
 No named parameters
 Segment information will not be 
 read by reach
 No named parameters
 No specifed inflow files


 NUMBER OF STREAM REACHES IS   40

 NUMBER OF STREAM SEGMENTS IS    3

 NUMBER OF STREAM PARAMETERS IS    0

 NUMBER OF STREAM SEGMENTS DEFINED USING PARAMETERS IS              0

 MAXIMUM ERROR FOR STREAM LEAKAGE RATES IS  1.00E-04

 CONSTANT FOR MANNINGS EQUATION IS  1.2839E+05





   STREAM NETWORK DESCRIPTION: 

   LAYER    ROW    COL   SEGMENT   REACH     LENGTH
                          NUMBER   NUMBER    IN CELL        
   --------------------------------------------------
      1     13      1       1        1    2.0000E+02
      1     13      2       1        2    2.0000E+02
      1     14      3       1        3    2.0000E+02
      1     15      4       1        4    2.0000E+02
      1     16      5       1        5    2.0000E+02
      1     16      6       1        6    2.0000E+02
      1     16      7       1        7    2.0000E+02
      1     16      8       1        8    2.0000E+02
      1     16      9       1        9    2.0000E+02
      1     16     10       1       10    2.0000E+02
      1     16     11       1       11    2.0000E+02
      1     16     12       1       12    2.0000E+02
      1     15     13       1       13    2.0000E+02
      1     14     14       1       14    2.0000E+02
      1     13     15       1       15    2.0000E+02
      1     12     16       1       16    2.0000E+02
      1     12     17       1       17    2.0000E+02
      1     12     18       1       18    2.0000E+02
      1     12     19       1       19    2.0000E+02
      1     13     20       1       20    2.0000E+02
      1     14     21       1       21    2.0000E+02
      1     14     22       1       22    2.0000E+02
      1      9     30       2        1    2.0000E+02
      1      9     29       2        2    2.0000E+02
      1      9     28       2        3    2.0000E+02
      1      9     27       2        4    2.0000E+02
      1     10     26       2        5    2.0000E+02
      1     11     25       2        6    2.0000E+02
      1     12     24       2        7    2.0000E+02
      1     13     23       2        8    2.0000E+02
      1     14     22       2        9    2.0000E+02
      1     14     22       3        1    2.0000E+02
      1     15     23       3        2    2.0000E+02
      1     15     24       3        3    2.0000E+02
      1     15     25       3        4    2.0000E+02
      1     15     26       3        5    2.0000E+02
      1     16     27       3        6    2.0000E+02
      1     17     28       3        7    2.0000E+02
      1     18     29       3        8    2.0000E+02
      1     18     30       3        9    2.0000E+02




 PCG -- CONJUGATE-GRADIENT SOLUTION PACKAGE, VERSION 7, 5/2/2005
 MAXIMUM OF    500 CALLS OF SOLUTION ROUTINE
 MAXIMUM OF      5 INTERNAL ITERATIONS PER CALL TO SOLUTION ROUTINE
 MATRIX PRECONDITIONING TYPE :    1



                                    SOLUTION BY THE CONJUGATE-GRADIENT METHOD
                                   -------------------------------------------
                    MAXIMUM NUMBER OF CALLS TO PCG ROUTINE =      500
                        MAXIMUM ITERATIONS PER CALL TO PCG =        5
                               MATRIX PRECONDITIONING TYPE =        1
        RELAXATION FACTOR (ONLY USED WITH PRECOND. TYPE 1) =    0.10000E+01
 PARAMETER OF POLYNOMIAL PRECOND. = 2 (2) OR IS CALCULATED :        0
                         HEAD CHANGE CRITERION FOR CLOSURE =    0.10000E-05
                     RESIDUAL CHANGE CRITERION FOR CLOSURE =    0.10000E+01
            PCG HEAD AND RESIDUAL CHANGE PRINTOUT INTERVAL =        1
     PRINTING FROM SOLVER IS LIMITED(1) OR SUPPRESSED (>1) =        1
                            STEADY-STATE DAMPING PARAMETER =    0.10000E+01
                               TRANSIENT DAMPING PARAMETER =    0.10000E+01
1
                            STRESS PERIOD NO.    1, LENGTH =   92.00000    
                            -----------------------------------------------

                              NUMBER OF TIME STEPS =     1

                               MULTIPLIER FOR DELT =     1.500

                            INITIAL TIME STEP SIZE =   92.00000    

 WELL NO.  LAYER   ROW   COL   STRESS RATE         
 --------------------------------------------------
      1      1     18     15      -8387.    
      2      1     17     18      -8258.    
      3      1     14     29      -8048.    
      4      1     19     28     -0.1429E+05

      4 WELLS

                 RECHARGE =  5.000000E-04



 CLASSIFICATION & COUNT OF STREAM SEGMENTS BASED ON SOURCE OF INFLOW:

                HEADWATER     DIVERSION     RECEIVES TRIBUTARY FLOW
                ---------     ---------     -----------------------
                     2              0               1



                    INPUT DATA FOR EACH STREAM SEGMENT
 ---------------------------------------------------------------------------------------------

 SEGMENT    SEG.     INFLOW   OVERLAND   STREAM    STREAM   ICALC  OUTFLOW  DIVERSION PRIORITY
    NO.    LENGTH     RATE     RUNOFF      ET       PPT.    METH.  TO SEG.  FROM SEG.    NO.

      1  4.400E+03 1.000E+05 0.000E+00 0.000E+00 0.000E+00    1        3        0        0
      2  1.800E+03 5.000E+04 0.000E+00 0.000E+00 0.000E+00    1        3        0        0
      3  1.800E+03 0.000E+00 0.000E+00 0.000E+00 0.000E+00    1        0        0        0


         STREAMBED PROPERTIES AND STREAM DIMENSIONS

 SEGMENT     BED HYD. COND.      BED THICKNESS     ELEV.-TOP OF BED     WIDTH OF STREAM     DEPTH OF STREAM    STREAM ROUGHNESS
    No.     UPPER     LOWER     UPPER     LOWER     UPPER     LOWER     UPPER     LOWER     UPPER     LOWER   CHANNEL      BANK

     1  5.000E+00 5.000E+00 1.000E+00 1.000E+00 4.850E+01 3.800E+01 2.000E+01 2.000E+01                     5.000E-02
     2  5.000E+00 5.000E+00 1.000E+00 1.000E+00 4.025E+01 3.800E+01 2.000E+01 2.000E+01                     5.000E-02
     3  5.000E+00 5.000E+00 1.000E+00 1.000E+00 3.800E+01 3.000E+01 2.000E+01 2.000E+01                     5.000E-02



 
 SOLVING FOR HEAD 


     9 CALLS TO PCG ROUTINE FOR TIME STEP   1 IN STRESS PERIOD    1
    36 TOTAL ITERATIONS

 OUTPUT CONTROL FOR STRESS PERIOD    1   TIME STEP    1
    SAVE BUDGET
    SAVE HEAD FOR ALL LAYERS
    PRINT HEAD FOR ALL LAYERS
 UBDSV2 SAVING "STREAMFLOW OUT  " ON UNIT  50 AT TIME STEP  1, STRESS PERIOD   1



 STREAM LISTING     PERIOD      1   STEP        1

 LAYER ROW COL. STREAM  RCH.  FLOW INTO     FLOW TO   FLOW OUT OF   OVRLND.     DIRECT     STREAM       STREAM     STREAM     STREAM   STREAMBED  STREAMBED
                SEG.NO.  NO.  STRM. RCH.    AQUIFER    STRM. RCH.    RUNOFF     PRECIP       ET          HEAD       DEPTH      WIDTH   CONDCTNC.   GRADIENT

   1   13    1     1     1    1.0000E+05 -6.1189E+03   1.0612E+05  0.000E+00  0.000E+00  0.000E+00  4.84087E+01  1.473E-01  2.000E+01  2.000E+04 -3.059E-01
   1   13    2     1     2    1.0612E+05 -7.5889E+03   1.1371E+05  0.000E+00  0.000E+00  0.000E+00  4.79372E+01  1.531E-01  2.000E+01  2.000E+04 -3.794E-01
   1   14    3     1     3    1.1371E+05 -2.1971E+03   1.1590E+05  0.000E+00  0.000E+00  0.000E+00  4.74640E+01  1.571E-01  2.000E+01  2.000E+04 -1.099E-01
   1   15    4     1     4    1.1590E+05 -2.2664E+03   1.1817E+05  0.000E+00  0.000E+00  0.000E+00  4.69885E+01  1.590E-01  2.000E+01  2.000E+04 -1.133E-01
   1   16    5     1     5    1.1817E+05 -7.1378E+03   1.2531E+05  0.000E+00  0.000E+00  0.000E+00  4.65150E+01  1.628E-01  2.000E+01  2.000E+04 -3.569E-01
   1   16    6     1     6    1.2531E+05 -4.2614E+03   1.2957E+05  0.000E+00  0.000E+00  0.000E+00  4.60423E+01  1.673E-01  2.000E+01  2.000E+04 -2.131E-01
   1   16    7     1     7    1.2957E+05 -4.0799E+03   1.3365E+05  0.000E+00  0.000E+00  0.000E+00  4.55683E+01  1.706E-01  2.000E+01  2.000E+04 -2.040E-01
   1   16    8     1     8    1.3365E+05 -4.0122E+03   1.3766E+05  0.000E+00  0.000E+00  0.000E+00  4.50942E+01  1.737E-01  2.000E+01  2.000E+04 -2.006E-01
   1   16    9     1     9    1.3766E+05 -3.9581E+03   1.4162E+05  0.000E+00  0.000E+00  0.000E+00  4.46199E+01  1.767E-01  2.000E+01  2.000E+04 -1.979E-01
   1   16   10     1    10    1.4162E+05 -3.8821E+03   1.4550E+05  0.000E+00  0.000E+00  0.000E+00  4.41456E+01  1.797E-01  2.000E+01  2.000E+04 -1.941E-01
   1   16   11     1    11    1.4550E+05 -3.7748E+03   1.4928E+05  0.000E+00  0.000E+00  0.000E+00  4.36712E+01  1.826E-01  2.000E+01  2.000E+04 -1.887E-01
   1   16   12     1    12    1.4928E+05 -5.9004E+03   1.5518E+05  0.000E+00  0.000E+00  0.000E+00  4.31975E+01  1.861E-01  2.000E+01  2.000E+04 -2.950E-01
   1   15   13     1    13    1.5518E+05 -6.2626E+03   1.6144E+05  0.000E+00  0.000E+00  0.000E+00  4.27246E+01  1.906E-01  2.000E+01  2.000E+04 -3.131E-01
   1   14   14     1    14    1.6144E+05 -6.9266E+03   1.6837E+05  0.000E+00  0.000E+00  0.000E+00  4.22521E+01  1.953E-01  2.000E+01  2.000E+04 -3.463E-01
   1   13   15     1    15    1.6837E+05 -7.5520E+03   1.7592E+05  0.000E+00  0.000E+00  0.000E+00  4.17799E+01  2.004E-01  2.000E+01  2.000E+04 -3.776E-01
   1   12   16     1    16    1.7592E+05 -8.6269E+03   1.8455E+05  0.000E+00  0.000E+00  0.000E+00  4.13083E+01  2.060E-01  2.000E+01  2.000E+04 -4.313E-01
   1   12   17     1    17    1.8455E+05 -5.9732E+03   1.9052E+05  0.000E+00  0.000E+00  0.000E+00  4.08359E+01  2.109E-01  2.000E+01  2.000E+04 -2.987E-01
   1   12   18     1    18    1.9052E+05 -5.8178E+03   1.9634E+05  0.000E+00  0.000E+00  0.000E+00  4.03626E+01  2.149E-01  2.000E+01  2.000E+04 -2.909E-01
   1   12   19     1    19    1.9634E+05 -7.5138E+03   2.0385E+05  0.000E+00  0.000E+00  0.000E+00  3.98898E+01  2.193E-01  2.000E+01  2.000E+04 -3.757E-01
   1   13   20     1    20    2.0385E+05 -6.2341E+03   2.1008E+05  0.000E+00  0.000E+00  0.000E+00  3.94170E+01  2.238E-01  2.000E+01  2.000E+04 -3.117E-01
   1   14   21     1    21    2.1008E+05 -5.5118E+03   2.1560E+05  0.000E+00  0.000E+00  0.000E+00  3.89435E+01  2.276E-01  2.000E+01  2.000E+04 -2.756E-01
   1   14   22     1    22    2.1560E+05  3.7771E+03   2.1182E+05  0.000E+00  0.000E+00  0.000E+00  3.84668E+01  2.281E-01  2.000E+01  2.000E+04  1.889E-01
   1    9   30     2     1    5.0000E+04 -4.3408E+03   5.4341E+04  0.000E+00  0.000E+00  0.000E+00  4.02439E+01  1.189E-01  2.000E+01  2.000E+04 -2.170E-01
   1    9   29     2     2    5.4341E+04 -4.6805E+03   5.9021E+04  0.000E+00  0.000E+00  0.000E+00  3.99999E+01  1.249E-01  2.000E+01  2.000E+04 -2.340E-01
   1    9   28     2     3    5.9021E+04 -5.0670E+03   6.4088E+04  0.000E+00  0.000E+00  0.000E+00  3.97563E+01  1.313E-01  2.000E+01  2.000E+04 -2.534E-01
   1    9   27     2     4    6.4088E+04 -8.0821E+03   7.2170E+04  0.000E+00  0.000E+00  0.000E+00  3.95145E+01  1.395E-01  2.000E+01  2.000E+04 -4.041E-01
   1   10   26     2     5    7.2170E+04 -6.9202E+03   7.9091E+04  0.000E+00  0.000E+00  0.000E+00  3.92735E+01  1.485E-01  2.000E+01  2.000E+04 -3.460E-01
   1   11   25     2     6    7.9091E+04 -6.4646E+03   8.5555E+04  0.000E+00  0.000E+00  0.000E+00  3.90313E+01  1.563E-01  2.000E+01  2.000E+04 -3.232E-01
   1   12   24     2     7    8.5555E+04 -6.1829E+03   9.1738E+04  0.000E+00  0.000E+00  0.000E+00  3.87884E+01  1.634E-01  2.000E+01  2.000E+04 -3.091E-01
   1   13   23     2     8    9.1738E+04 -1.6495E+03   9.3388E+04  0.000E+00  0.000E+00  0.000E+00  3.85427E+01  1.677E-01  2.000E+01  2.000E+04 -8.247E-02
   1   14   22     2     9    9.3388E+04  3.0916E+02   9.3078E+04  0.000E+00  0.000E+00  0.000E+00  3.82934E+01  1.684E-01  2.000E+01  2.000E+04  1.546E-02
   1   14   22     3     1    3.0490E+05 -9.7166E+03   3.1461E+05  0.000E+00  0.000E+00  0.000E+00  3.77921E+01  2.365E-01  2.000E+01  2.000E+04 -4.858E-01
   1   15   23     3     2    3.1461E+05 -1.8602E+03   3.1647E+05  0.000E+00  0.000E+00  0.000E+00  3.69059E+01  2.392E-01  2.000E+01  2.000E+04 -9.301E-02
   1   15   24     3     3    3.1647E+05 -1.4980E+03   3.1797E+05  0.000E+00  0.000E+00  0.000E+00  3.60177E+01  2.399E-01  2.000E+01  2.000E+04 -7.490E-02
   1   15   25     3     4    3.1797E+05 -1.5420E+03   3.1951E+05  0.000E+00  0.000E+00  0.000E+00  3.51295E+01  2.406E-01  2.000E+01  2.000E+04 -7.710E-02
   1   15   26     3     5    3.1951E+05 -1.7061E+03   3.2122E+05  0.000E+00  0.000E+00  0.000E+00  3.42414E+01  2.414E-01  2.000E+01  2.000E+04 -8.531E-02
   1   16   27     3     6    3.2122E+05 -1.7720E+03   3.2299E+05  0.000E+00  0.000E+00  0.000E+00  3.33533E+01  2.422E-01  2.000E+01  2.000E+04 -8.860E-02
   1   17   28     3     7    3.2299E+05 -2.4217E+03   3.2541E+05  0.000E+00  0.000E+00  0.000E+00  3.24653E+01  2.431E-01  2.000E+01  2.000E+04 -1.211E-01
   1   18   29     3     8    3.2541E+05 -2.2198E+03   3.2763E+05  0.000E+00  0.000E+00  0.000E+00  3.15775E+01  2.441E-01  2.000E+01  2.000E+04 -1.110E-01
   1   18   30     3     9    3.2763E+05 -4.6642E+03   3.3230E+05  0.000E+00  0.000E+00  0.000E+00  3.06901E+01  2.457E-01  2.000E+01  2.000E+04 -2.332E-01



1
              HEAD IN LAYER   1 AT END OF TIME STEP   1 IN STRESS PERIOD    1
  ---------------------------------------------------------------------------

          1      2      3      4      5      6      7      8      9     10
         11     12     13     14     15     16     17     18     19     20
         21     22     23     24     25     26     27     28     29     30
 .........................................................................
   1  ****** ****** ****** ****** ****** ****** ****** ****** ****** ******
      ****** ****** ****** ****** ****** ****** ****** ****** ****** ******
      ****** ****** ****** ****** ****** ****** ****** ****** ****** ******
   2  ****** ****** ****** ****** ****** ****** ****** ****** ****** ******
      ****** ****** ****** ****** ****** ****** ****** ****** ****** ******
      ****** ****** ****** ****** ****** ****** ****** ****** ****** ******
   3  ****** ****** ****** ****** ****** ****** ****** ****** ****** ******
      ****** ****** ****** ****** ****** ****** ****** ****** ****** ******
      ****** ****** ****** ****** ****** ****** ****** ****** ****** ******
   4  ****** ****** ****** ****** ****** ****** ****** ****** ****** ******
      ****** ****** ****** ****** ****** ****** ****** ****** ****** ******
      ****** ****** ****** ****** ****** ****** ****** ****** ****** ******
   5  ****** ****** ****** ****** ****** ****** ****** ****** ****** ******
      ****** ****** ****** ****** ****** ****** ****** ****** ****** ******
      ****** ****** ****** ****** ****** ****** ****** ****** ****** ******
   6  ****** ****** ****** ****** ****** ****** ****** ****** ****** ******
      ****** ****** ****** ****** ****** ****** ****** ****** ****** ******
      ****** ****** ****** ****** ****** ****** ****** ****** ****** ******
   7  ****** ****** ****** ****** ****** ****** ****** ****** ****** ******
      ****** ****** ****** ****** ****** ****** ****** ****** ****** ******
      ****** ****** ****** ****** ****** ****** ****** ****** ****** ******
   8  ****** ****** ****** ****** ****** ****** ****** ****** ****** ******
      ****** ****** ****** ****** ****** ****** ****** ****** ****** ******
      ****** ****** ****** ****** ****** ****** ****** ****** ****** ******
   9  ****** ****** ****** ****** ****** ****** ****** ****** ****** ******
      ****** ****** ****** ****** ****** ****** ****** ****** ****** ******
      ****** ****** ****** ****** ****** ****** ****** ****** ****** ******
  10  ****** ****** ****** ****** ****** ****** ****** ****** ****** ******
      ****** ****** ****** ****** ****** ****** ****** ****** ****** ******
      ****** ****** ****** ****** ****** ****** ****** ****** ****** ******
  11  ****** ****** ****** ****** ****** ****** ****** ****** ****** ******
      ****** ****** ****** ****** ****** ****** ****** ****** ****** ******
      ****** ****** ****** ****** ****** ****** ****** ****** ****** ******
  12  ****** ****** ****** ****** ****** ****** ****** ****** ****** ******
      ****** ****** ****** ****** ****** ****** ****** ****** ****** ******
      ****** ****** ****** ****** ****** ****** ****** ****** ****** ******
  13  ****** ****** ****** ****** ****** ****** ****** ****** ****** ******
      ****** ****** ****** ****** ****** ****** ****** ****** ****** ******
      ****** ****** ****** ****** ****** ****** ****** ****** ****** ******
  14  ****** ****** ****** ****** ****** ****** ****** ****** ****** ******
      ****** ****** ****** ****** ****** ****** ****** ****** ****** ******
      ****** ****** ****** ****** ****** ****** ****** ****** ****** ******
  15  ****** ****** ****** ****** ****** ****** ****** ****** ****** ******
      ****** ****** ****** ****** ****** ****** ****** ****** ****** ******
      ****** ****** ****** ****** ****** ****** ****** ****** ****** ******
  16  ****** ****** ****** ****** ****** ****** ****** ****** ****** ******
      ****** ****** ****** ****** ****** ****** ****** ****** ****** ******
      ****** ****** ****** ****** ****** ****** ****** ****** ****** ******
  17  ****** ****** ****** ****** ****** ****** ****** ****** ****** ******
      ****** ****** ****** ****** ****** ****** ****** ****** ****** ******
      ****** ****** ****** ****** ****** ****** ****** ****** ****** ******
  18  ****** ****** ****** ****** ****** ****** ****** ****** ****** ******
      ****** ****** ****** ****** ****** ****** ****** ****** ****** ******
      ****** ****** ****** ****** ****** ****** ****** ****** ****** ******
  19  ****** ****** ****** ****** ****** ****** ****** ****** ****** ******
      ****** ****** ****** ****** ****** ****** ****** ****** ****** ******
      ****** ****** ****** ****** ****** ****** ****** ****** ****** ******
  20  ****** ****** ****** ****** ****** ****** ****** ****** ****** ******
      ****** ****** ****** ****** ****** ****** ****** ****** ****** ******
      ****** ****** ****** ****** ****** ****** ****** ****** ****** ******
  21  ****** ****** ****** ****** ****** ****** ****** ****** ****** ******
      ****** ****** ****** ****** ****** ****** ****** ****** ****** ******
      ****** ****** ****** ****** ****** ****** ****** ****** ****** ******
  22  ****** ****** ****** ****** ****** ****** ****** ****** ****** ******
      ****** ****** ****** ****** ****** ****** ****** ****** ****** ******
      ****** ****** ****** ****** ****** ****** ****** ****** ****** ******
  23  ****** ****** ****** ****** ****** ****** ****** ****** ****** ******
      ****** ****** ****** ****** ****** ****** ****** ****** ****** ******
      ****** ****** ****** ****** ****** ****** ****** ****** ****** ******
  24  ****** ****** ****** ****** ****** ****** ****** ****** ****** ******
      ****** ****** ****** ****** ****** ****** ****** ****** ****** ******
      ****** ****** ****** ****** ****** ****** ****** ****** ****** ******
  25  ****** ****** ****** ****** ****** ****** ****** ****** ****** ******
      ****** ****** ****** ****** ****** ****** ****** ****** ****** ******
      ****** ****** ****** ****** ****** ****** ****** ****** ****** ******

 HEAD WILL BE SAVED ON UNIT   51 AT END OF TIME STEP    1, STRESS PERIOD    1
1
  VOLUMETRIC BUDGET FOR ENTIRE MODEL AT END OF TIME STEP    1, STRESS PERIOD   1
  ------------------------------------------------------------------------------

     CUMULATIVE VOLUMES      L**3       RATES FOR THIS TIME STEP      L**3/T
     ------------------                 ------------------------

           IN:                                      IN:
           ---                                      ---
             STORAGE =    17926607.9090               STORAGE =      194854.4338
       CONSTANT HEAD =     1161719.7721         CONSTANT HEAD =       12627.3888
               WELLS =           0.0000                 WELLS =           0.0000
            RECHARGE =     1269600.0000              RECHARGE =       13800.0000
      STREAM LEAKAGE =      375932.3883        STREAM LEAKAGE =        4086.2216

            TOTAL IN =    20733860.0694              TOTAL IN =      225368.0442

          OUT:                                     OUT:
          ----                                     ----
             STORAGE =           0.0000               STORAGE =           0.0000
       CONSTANT HEAD =           0.0000         CONSTANT HEAD =           0.0000
               WELLS =     3586439.5372                 WELLS =       38983.0384
            RECHARGE =           0.0000              RECHARGE =           0.0000
      STREAM LEAKAGE =    17147420.8184        STREAM LEAKAGE =      186385.0089

           TOTAL OUT =    20733860.3556             TOTAL OUT =      225368.0473

            IN - OUT =          -0.2862              IN - OUT =      -3.1108E-03

 PERCENT DISCREPANCY =          -0.00     PERCENT DISCREPANCY =          -0.00






         TIME SUMMARY AT END OF TIME STEP    1 IN STRESS PERIOD    1
                    SECONDS     MINUTES      HOURS       DAYS        YEARS
                    -----------------------------------------------------------
   TIME STEP LENGTH 7.94880E+06 1.32480E+05  2208.0      92.000     0.25188    
 STRESS PERIOD TIME 7.94880E+06 1.32480E+05  2208.0      92.000     0.25188    
         TOTAL TIME 7.94880E+06 1.32480E+05  2208.0      92.000     0.25188    
1
1
                            STRESS PERIOD NO.    2, LENGTH =   91.00000    
                            -----------------------------------------------

                              NUMBER OF TIME STEPS =     1

                               MULTIPLIER FOR DELT =     1.500

                            INITIAL TIME STEP SIZE =   91.00000    

 WELL NO.  LAYER   ROW   COL   STRESS RATE         
 --------------------------------------------------
      1      1     18     15      -8387.    
      2      1     17     18      -8258.    
      3      1     14     29      -8048.    
      4      1     19     28     -0.1429E+05

      4 WELLS

                 RECHARGE =  2.000000E-03

 REUSING STREAM SEGMENT DATA FROM LAST STRESS PERIOD
 
 SOLVING FOR HEAD 


     7 CALLS TO PCG ROUTINE FOR TIME STEP   1 IN STRESS PERIOD    2
    27 TOTAL ITERATIONS

 OUTPUT CONTROL FOR STRESS PERIOD    2   TIME STEP    1
    SAVE BUDGET
    SAVE HEAD FOR ALL LAYERS
    PRINT HEAD FOR ALL LAYERS
 UBDSV2 SAVING "STREAMFLOW OUT  " ON UNIT  50 AT TIME STEP  1, STRESS PERIOD   2



 STREAM LISTING     PERIOD      2   STEP        1

 LAYER ROW COL. STREAM  RCH.  FLOW INTO     FLOW TO   FLOW OUT OF   OVRLND.     DIRECT     STREAM       STREAM     STREAM     STREAM   STREAMBED  STREAMBED
                SEG.NO.  NO.  STRM. RCH.    AQUIFER    STRM. RCH.    RUNOFF     PRECIP       ET          HEAD       DEPTH      WIDTH   CONDCTNC.   GRADIENT

   1   13    1     1     1    1.0000E+05 -4.0023E+03   1.0400E+05  0.000E+00  0.000E+00  0.000E+00  4.84077E+01  1.464E-01  2.000E+01  2.000E+04 -2.001E-01
   1   13    2     1     2    1.0400E+05 -5.2656E+03   1.0927E+05  0.000E+00  0.000E+00  0.000E+00  4.79344E+01  1.503E-01  2.000E+01  2.000E+04 -2.633E-01
   1   14    3     1     3    1.0927E+05 -1.1121E+03   1.1038E+05  0.000E+00  0.000E+00  0.000E+00  4.74598E+01  1.530E-01  2.000E+01  2.000E+04 -5.560E-02
   1   15    4     1     4    1.1038E+05 -1.1354E+03   1.1152E+05  0.000E+00  0.000E+00  0.000E+00  4.69835E+01  1.540E-01  2.000E+01  2.000E+04 -5.677E-02
   1   16    5     1     5    1.1152E+05 -4.1550E+03   1.1567E+05  0.000E+00  0.000E+00  0.000E+00  4.65084E+01  1.561E-01  2.000E+01  2.000E+04 -2.078E-01
   1   16    6     1     6    1.1567E+05 -2.4266E+03   1.1810E+05  0.000E+00  0.000E+00  0.000E+00  4.60338E+01  1.588E-01  2.000E+01  2.000E+04 -1.213E-01
   1   16    7     1     7    1.1810E+05 -2.3067E+03   1.2040E+05  0.000E+00  0.000E+00  0.000E+00  4.55585E+01  1.608E-01  2.000E+01  2.000E+04 -1.153E-01
   1   16    8     1     8    1.2040E+05 -2.2364E+03   1.2264E+05  0.000E+00  0.000E+00  0.000E+00  4.50831E+01  1.626E-01  2.000E+01  2.000E+04 -1.118E-01
   1   16    9     1     9    1.2264E+05 -2.1520E+03   1.2479E+05  0.000E+00  0.000E+00  0.000E+00  4.46075E+01  1.644E-01  2.000E+01  2.000E+04 -1.076E-01
   1   16   10     1    10    1.2479E+05 -2.0251E+03   1.2682E+05  0.000E+00  0.000E+00  0.000E+00  4.41319E+01  1.660E-01  2.000E+01  2.000E+04 -1.013E-01
   1   16   11     1    11    1.2682E+05 -1.8402E+03   1.2866E+05  0.000E+00  0.000E+00  0.000E+00  4.36562E+01  1.675E-01  2.000E+01  2.000E+04 -9.201E-02
   1   16   12     1    12    1.2866E+05 -2.6303E+03   1.3129E+05  0.000E+00  0.000E+00  0.000E+00  4.31807E+01  1.693E-01  2.000E+01  2.000E+04 -1.315E-01
   1   15   13     1    13    1.3129E+05 -2.7132E+03   1.3400E+05  0.000E+00  0.000E+00  0.000E+00  4.27055E+01  1.714E-01  2.000E+01  2.000E+04 -1.357E-01
   1   14   14     1    14    1.3400E+05 -3.3207E+03   1.3732E+05  0.000E+00  0.000E+00  0.000E+00  4.22305E+01  1.737E-01  2.000E+01  2.000E+04 -1.660E-01
   1   13   15     1    15    1.3732E+05 -4.0441E+03   1.4137E+05  0.000E+00  0.000E+00  0.000E+00  4.17561E+01  1.765E-01  2.000E+01  2.000E+04 -2.022E-01
   1   12   16     1    16    1.4137E+05 -5.4761E+03   1.4684E+05  0.000E+00  0.000E+00  0.000E+00  4.12824E+01  1.801E-01  2.000E+01  2.000E+04 -2.738E-01
   1   12   17     1    17    1.4684E+05 -3.4111E+03   1.5025E+05  0.000E+00  0.000E+00  0.000E+00  4.08084E+01  1.834E-01  2.000E+01  2.000E+04 -1.706E-01
   1   12   18     1    18    1.5025E+05 -3.2494E+03   1.5350E+05  0.000E+00  0.000E+00  0.000E+00  4.03336E+01  1.859E-01  2.000E+01  2.000E+04 -1.625E-01
   1   12   19     1    19    1.5350E+05 -4.3828E+03   1.5789E+05  0.000E+00  0.000E+00  0.000E+00  3.98591E+01  1.887E-01  2.000E+01  2.000E+04 -2.191E-01
   1   13   20     1    20    1.5789E+05 -2.9358E+03   1.6082E+05  0.000E+00  0.000E+00  0.000E+00  3.93845E+01  1.913E-01  2.000E+01  2.000E+04 -1.468E-01
   1   14   21     1    21    1.6082E+05 -2.4181E+03   1.6324E+05  0.000E+00  0.000E+00  0.000E+00  3.89091E+01  1.932E-01  2.000E+01  2.000E+04 -1.209E-01
   1   14   22     1    22    1.6324E+05  4.5929E+03   1.5865E+05  0.000E+00  0.000E+00  0.000E+00  3.84311E+01  1.925E-01  2.000E+01  2.000E+04  2.296E-01
   1    9   30     2     1    5.0000E+04 -1.4802E+03   5.1480E+04  0.000E+00  0.000E+00  0.000E+00  4.02419E+01  1.169E-01  2.000E+01  2.000E+04 -7.401E-02
   1    9   29     2     2    5.1480E+04 -1.8485E+03   5.3329E+04  0.000E+00  0.000E+00  0.000E+00  3.99942E+01  1.192E-01  2.000E+01  2.000E+04 -9.243E-02
   1    9   28     2     3    5.3329E+04 -2.2849E+03   5.5614E+04  0.000E+00  0.000E+00  0.000E+00  3.97470E+01  1.220E-01  2.000E+01  2.000E+04 -1.142E-01
   1    9   27     2     4    5.5614E+04 -4.6003E+03   6.0214E+04  0.000E+00  0.000E+00  0.000E+00  3.95015E+01  1.265E-01  2.000E+01  2.000E+04 -2.300E-01
   1   10   26     2     5    6.0214E+04 -3.2286E+03   6.3443E+04  0.000E+00  0.000E+00  0.000E+00  3.92566E+01  1.316E-01  2.000E+01  2.000E+04 -1.614E-01
   1   11   25     2     6    6.3443E+04 -2.9519E+03   6.6394E+04  0.000E+00  0.000E+00  0.000E+00  3.90105E+01  1.355E-01  2.000E+01  2.000E+04 -1.476E-01
   1   12   24     2     7    6.6394E+04 -3.0928E+03   6.9487E+04  0.000E+00  0.000E+00  0.000E+00  3.87643E+01  1.393E-01  2.000E+01  2.000E+04 -1.546E-01
   1   13   23     2     8    6.9487E+04 -6.1098E+02   7.0098E+04  0.000E+00  0.000E+00  0.000E+00  3.85165E+01  1.415E-01  2.000E+01  2.000E+04 -3.055E-02
   1   14   22     2     9    7.0098E+04  1.2935E+03   6.8805E+04  0.000E+00  0.000E+00  0.000E+00  3.82661E+01  1.411E-01  2.000E+01  2.000E+04  6.467E-02
   1   14   22     3     1    2.2745E+05 -8.9410E+03   2.3639E+05  0.000E+00  0.000E+00  0.000E+00  3.77544E+01  1.988E-01  2.000E+01  2.000E+04 -4.470E-01
   1   15   23     3     2    2.3639E+05 -8.4453E+02   2.3724E+05  0.000E+00  0.000E+00  0.000E+00  3.68680E+01  2.013E-01  2.000E+01  2.000E+04 -4.223E-02
   1   15   24     3     3    2.3724E+05 -6.0162E+02   2.3784E+05  0.000E+00  0.000E+00  0.000E+00  3.59795E+01  2.017E-01  2.000E+01  2.000E+04 -3.008E-02
   1   15   25     3     4    2.3784E+05 -6.0052E+02   2.3844E+05  0.000E+00  0.000E+00  0.000E+00  3.50909E+01  2.020E-01  2.000E+01  2.000E+04 -3.003E-02
   1   15   26     3     5    2.3844E+05 -5.1976E+02   2.3896E+05  0.000E+00  0.000E+00  0.000E+00  3.42023E+01  2.023E-01  2.000E+01  2.000E+04 -2.599E-02
   1   16   27     3     6    2.3896E+05 -3.8007E+02   2.3934E+05  0.000E+00  0.000E+00  0.000E+00  3.33136E+01  2.025E-01  2.000E+01  2.000E+04 -1.900E-02
   1   17   28     3     7    2.3934E+05  1.6148E+03   2.3772E+05  0.000E+00  0.000E+00  0.000E+00  3.24244E+01  2.022E-01  2.000E+01  2.000E+04  8.074E-02
   1   18   29     3     8    2.3772E+05  1.6205E+03   2.3610E+05  0.000E+00  0.000E+00  0.000E+00  3.15347E+01  2.014E-01  2.000E+01  2.000E+04  8.103E-02
   1   18   30     3     9    2.3610E+05 -1.5663E+03   2.3767E+05  0.000E+00  0.000E+00  0.000E+00  3.06458E+01  2.014E-01  2.000E+01  2.000E+04 -7.831E-02



1
              HEAD IN LAYER   1 AT END OF TIME STEP   1 IN STRESS PERIOD    2
  ---------------------------------------------------------------------------

          1      2      3      4      5      6      7      8      9     10
         11     12     13     14     15     16     17     18     19     20
         21     22     23     24     25     26     27     28     29     30
 .........................................................................
   1  ****** ****** ****** ****** ****** ****** ****** ****** ****** ******
      ****** ****** ****** ****** ****** ****** ****** ****** ****** ******
      ****** ****** ****** ****** ****** ****** ****** ****** ****** ******
   2  ****** ****** ****** ****** ****** ****** ****** ****** ****** ******
      ****** ****** ****** ****** ****** ****** ****** ****** ****** ******
      ****** ****** ****** ****** ****** ****** ****** ****** ****** ******
   3  ****** ****** ****** ****** ****** ****** ****** ****** ****** ******
      ****** ****** ****** ****** ****** ****** ****** ****** ****** ******
      ****** ****** ****** ****** ****** ****** ****** ****** ****** ******
   4  ****** ****** ****** ****** ****** ****** ****** ****** ****** ******
      ****** ****** ****** ****** ****** ****** ****** ****** ****** ******
      ****** ****** ****** ****** ****** ****** ****** ****** ****** ******
   5  ****** ****** ****** ****** ****** ****** ****** ****** ****** ******
      ****** ****** ****** ****** ****** ****** ****** ****** ****** ******
      ****** ****** ****** ****** ****** ****** ****** ****** ****** ******
   6  ****** ****** ****** ****** ****** ****** ****** ****** ****** ******
      ****** ****** ****** ****** ****** ****** ****** ****** ****** ******
      ****** ****** ****** ****** ****** ****** ****** ****** ****** ******
   7  ****** ****** ****** ****** ****** ****** ****** ****** ****** ******
      ****** ****** ****** ****** ****** ****** ****** ****** ****** ******
      ****** ****** ****** ****** ****** ****** ****** ****** ****** ******
   8  ****** ****** ****** ****** ****** ****** ****** ****** ****** ******
      ****** ****** ****** ****** ****** ****** ****** ****** ****** ******
      ****** ****** ****** ****** ****** ****** ****** ****** ****** ******
   9  ****** ****** ****** ****** ****** ****** ****** ****** ****** ******
      ****** ****** ****** ****** ****** ****** ****** ****** ****** ******
      ****** ****** ****** ****** ****** ****** ****** ****** ****** ******
  10  ****** ****** ****** ****** ****** ****** ****** ****** ****** ******
      ****** ****** ****** ****** ****** ****** ****** ****** ****** ******
      ****** ****** ****** ****** ****** ****** ****** ****** ****** ******
  11  ****** ****** ****** ****** ****** ****** ****** ****** ****** ******
      ****** ****** ****** ****** ****** ****** ****** ****** ****** ******
      ****** ****** ****** ****** ****** ****** ****** ****** ****** ******
  12  ****** ****** ****** ****** ****** ****** ****** ****** ****** ******
      ****** ****** ****** ****** ****** ****** ****** ****** ****** ******
      ****** ****** ****** ****** ****** ****** ****** ****** ****** ******
  13  ****** ****** ****** ****** ****** ****** ****** ****** ****** ******
      ****** ****** ****** ****** ****** ****** ****** ****** ****** ******
      ****** ****** ****** ****** ****** ****** ****** ****** ****** ******
  14  ****** ****** ****** ****** ****** ****** ****** ****** ****** ******
      ****** ****** ****** ****** ****** ****** ****** ****** ****** ******
      ****** ****** ****** ****** ****** ****** ****** ****** ****** ******
  15  ****** ****** ****** ****** ****** ****** ****** ****** ****** ******
      ****** ****** ****** ****** ****** ****** ****** ****** ****** ******
      ****** ****** ****** ****** ****** ****** ****** ****** ****** ******
  16  ****** ****** ****** ****** ****** ****** ****** ****** ****** ******
      ****** ****** ****** ****** ****** ****** ****** ****** ****** ******
      ****** ****** ****** ****** ****** ****** ****** ****** ****** ******
  17  ****** ****** ****** ****** ****** ****** ****** ****** ****** ******
      ****** ****** ****** ****** ****** ****** ****** ****** ****** ******
      ****** ****** ****** ****** ****** ****** ****** ****** ****** ******
  18  ****** ****** ****** ****** ****** ****** ****** ****** ****** ******
      ****** ****** ****** ****** ****** ****** ****** ****** ****** ******
      ****** ****** ****** ****** ****** ****** ****** ****** ****** ******
  19  ****** ****** ****** ****** ****** ****** ****** ****** ****** ******
      ****** ****** ****** ****** ****** ****** ****** ****** ****** ******
      ****** ****** ****** ****** ****** ****** ****** ****** ****** ******
  20  ****** ****** ****** ****** ****** ****** ****** ****** ****** ******
      ****** ****** ****** ****** ****** ****** ****** ****** ****** ******
      ****** ****** ****** ****** ****** ****** ****** ****** ****** ******
  21  ****** ****** ****** ****** ****** ****** ****** ****** ****** ******
      ****** ****** ****** ****** ****** ****** ****** ****** ****** ******
      ****** ****** ****** ****** ****** ****** ****** ****** ****** ******
  22  ****** ****** ****** ****** ****** ****** ****** ****** ****** ******
      ****** ****** ****** ****** ****** ****** ****** ****** ****** ******
      ****** ****** ****** ****** ****** ****** ****** ****** ****** ******
  23  ****** ****** ****** ****** ****** ****** ****** ****** ****** ******
      ****** ****** ****** ****** ****** ****** ****** ****** ****** ******
      ****** ****** ****** ****** ****** ****** ****** ****** ****** ******
  24  ****** ****** ****** ****** ****** ****** ****** ****** ****** ******
      ****** ****** ****** ****** ****** ****** ****** ****** ****** ******
      ****** ****** ****** ****** ****** ****** ****** ****** ****** ******
  25  ****** ****** ****** ****** ****** ****** ****** ****** ****** ******
      ****** ****** ****** ****** ****** ****** ****** ****** ****** ******
      ****** ****** ****** ****** ****** ****** ****** ****** ****** ******

 HEAD WILL BE SAVED ON UNIT   51 AT END OF TIME STEP    1, STRESS PERIOD    2
1
  VOLUMETRIC BUDGET FOR ENTIRE MODEL AT END OF TIME STEP    1, STRESS PERIOD   2
  ------------------------------------------------------------------------------

     CUMULATIVE VOLUMES      L**3       RATES FOR THIS TIME STEP      L**3/T
     ------------------                 ------------------------

           IN:                                      IN:
           ---                                      ---
             STORAGE =    22860331.6175               STORAGE =       54216.7440
       CONSTANT HEAD =     2730153.7574         CONSTANT HEAD =       17235.5383
               WELLS =           0.0000                 WELLS =           0.0000
            RECHARGE =     6292800.0000              RECHARGE =       55200.0000
      STREAM LEAKAGE =     1206002.5607        STREAM LEAKAGE =        9121.6502

            TOTAL IN =    33089287.9357              TOTAL IN =      135773.9326

          OUT:                                     OUT:
          ----                                     ----
             STORAGE =           0.0000               STORAGE =           0.0000
       CONSTANT HEAD =           0.0000         CONSTANT HEAD =           0.0000
               WELLS =     7133896.0359                 WELLS =       38983.0384
            RECHARGE =           0.0000              RECHARGE =           0.0000
      STREAM LEAKAGE =    25955393.1276        STREAM LEAKAGE =       96790.9045

           TOTAL OUT =    33089289.1636             TOTAL OUT =      135773.9429

            IN - OUT =          -1.2279              IN - OUT =      -1.0349E-02

 PERCENT DISCREPANCY =          -0.00     PERCENT DISCREPANCY =          -0.00






         TIME SUMMARY AT END OF TIME STEP    1 IN STRESS PERIOD    2
                    SECONDS     MINUTES      HOURS       DAYS        YEARS
                    -----------------------------------------------------------
   TIME STEP LENGTH 7.86240E+06 1.31040E+05  2184.0      91.000     0.24914    
 STRESS PERIOD TIME 7.86240E+06 1.31040E+05  2184.0      91.000     0.24914    
         TOTAL TIME 1.58112E+07 2.63520E+05  4392.0      183.00     0.50103    
1
1
                            STRESS PERIOD NO.    3, LENGTH =   91.00000    
                            -----------------------------------------------

                              NUMBER OF TIME STEPS =     1

                               MULTIPLIER FOR DELT =     1.500

                            INITIAL TIME STEP SIZE =   91.00000    

 WELL NO.  LAYER   ROW   COL   STRESS RATE         
 --------------------------------------------------
      1      1     18     15      -8387.    
      2      1     17     18      -8258.    
      3      1     14     29      -8048.    
      4      1     19     28     -0.1429E+05

      4 WELLS

                 RECHARGE =   0.00000    

 REUSING STREAM SEGMENT DATA FROM LAST STRESS PERIOD
 
 SOLVING FOR HEAD 


     7 CALLS TO PCG ROUTINE FOR TIME STEP   1 IN STRESS PERIOD    3
    27 TOTAL ITERATIONS

 OUTPUT CONTROL FOR STRESS PERIOD    3   TIME STEP    1
    SAVE BUDGET
    SAVE HEAD FOR ALL LAYERS
    PRINT HEAD FOR ALL LAYERS
 UBDSV2 SAVING "STREAMFLOW OUT  " ON UNIT  50 AT TIME STEP  1, STRESS PERIOD   3



 STREAM LISTING     PERIOD      3   STEP        1

 LAYER ROW COL. STREAM  RCH.  FLOW INTO     FLOW TO   FLOW OUT OF   OVRLND.     DIRECT     STREAM       STREAM     STREAM     STREAM   STREAMBED  STREAMBED
                SEG.NO.  NO.  STRM. RCH.    AQUIFER    STRM. RCH.    RUNOFF     PRECIP       ET          HEAD       DEPTH      WIDTH   CONDCTNC.   GRADIENT

   1   13    1     1     1    1.0000E+05 -2.7576E+03   1.0276E+05  0.000E+00  0.000E+00  0.000E+00  4.84072E+01  1.458E-01  2.000E+01  2.000E+04 -1.379E-01
   1   13    2     1     2    1.0276E+05 -3.8688E+03   1.0663E+05  0.000E+00  0.000E+00  0.000E+00  4.79328E+01  1.487E-01  2.000E+01  2.000E+04 -1.934E-01
   1   14    3     1     3    1.0663E+05 -6.5006E+02   1.0728E+05  0.000E+00  0.000E+00  0.000E+00  4.74574E+01  1.506E-01  2.000E+01  2.000E+04 -3.250E-02
   1   15    4     1     4    1.0728E+05 -6.2712E+02   1.0790E+05  0.000E+00  0.000E+00  0.000E+00  4.69807E+01  1.511E-01  2.000E+01  2.000E+04 -3.136E-02
   1   16    5     1     5    1.0790E+05 -2.3229E+03   1.1023E+05  0.000E+00  0.000E+00  0.000E+00  4.65047E+01  1.524E-01  2.000E+01  2.000E+04 -1.161E-01
   1   16    6     1     6    1.1023E+05 -1.3987E+03   1.1163E+05  0.000E+00  0.000E+00  0.000E+00  4.60289E+01  1.539E-01  2.000E+01  2.000E+04 -6.993E-02
   1   16    7     1     7    1.1163E+05 -1.3333E+03   1.1296E+05  0.000E+00  0.000E+00  0.000E+00  4.55528E+01  1.551E-01  2.000E+01  2.000E+04 -6.666E-02
   1   16    8     1     8    1.1296E+05 -1.2749E+03   1.1423E+05  0.000E+00  0.000E+00  0.000E+00  4.50766E+01  1.562E-01  2.000E+01  2.000E+04 -6.375E-02
   1   16    9     1     9    1.1423E+05 -1.1867E+03   1.1542E+05  0.000E+00  0.000E+00  0.000E+00  4.46003E+01  1.572E-01  2.000E+01  2.000E+04 -5.933E-02
   1   16   10     1    10    1.1542E+05 -1.0488E+03   1.1647E+05  0.000E+00  0.000E+00  0.000E+00  4.41240E+01  1.581E-01  2.000E+01  2.000E+04 -5.244E-02
   1   16   11     1    11    1.1647E+05 -8.4074E+02   1.1731E+05  0.000E+00  0.000E+00  0.000E+00  4.36475E+01  1.589E-01  2.000E+01  2.000E+04 -4.204E-02
   1   16   12     1    12    1.1731E+05 -8.6439E+02   1.1817E+05  0.000E+00  0.000E+00  0.000E+00  4.31709E+01  1.595E-01  2.000E+01  2.000E+04 -4.322E-02
   1   15   13     1    13    1.1817E+05 -9.4961E+02   1.1912E+05  0.000E+00  0.000E+00  0.000E+00  4.26944E+01  1.603E-01  2.000E+01  2.000E+04 -4.748E-02
   1   14   14     1    14    1.1912E+05 -1.5387E+03   1.2066E+05  0.000E+00  0.000E+00  0.000E+00  4.22181E+01  1.613E-01  2.000E+01  2.000E+04 -7.693E-02
   1   13   15     1    15    1.2066E+05 -2.2938E+03   1.2296E+05  0.000E+00  0.000E+00  0.000E+00  4.17424E+01  1.628E-01  2.000E+01  2.000E+04 -1.147E-01
   1   12   16     1    16    1.2296E+05 -3.7310E+03   1.2669E+05  0.000E+00  0.000E+00  0.000E+00  4.12675E+01  1.652E-01  2.000E+01  2.000E+04 -1.865E-01
   1   12   17     1    17    1.2669E+05 -2.1218E+03   1.2881E+05  0.000E+00  0.000E+00  0.000E+00  4.07925E+01  1.675E-01  2.000E+01  2.000E+04 -1.061E-01
   1   12   18     1    18    1.2881E+05 -1.9762E+03   1.3079E+05  0.000E+00  0.000E+00  0.000E+00  4.03169E+01  1.692E-01  2.000E+01  2.000E+04 -9.881E-02
   1   12   19     1    19    1.3079E+05 -2.8099E+03   1.3360E+05  0.000E+00  0.000E+00  0.000E+00  3.98415E+01  1.710E-01  2.000E+01  2.000E+04 -1.405E-01
   1   13   20     1    20    1.3360E+05 -1.4138E+03   1.3501E+05  0.000E+00  0.000E+00  0.000E+00  3.93658E+01  1.727E-01  2.000E+01  2.000E+04 -7.069E-02
   1   14   21     1    21    1.3501E+05 -7.8305E+02   1.3579E+05  0.000E+00  0.000E+00  0.000E+00  3.88894E+01  1.735E-01  2.000E+01  2.000E+04 -3.915E-02
   1   14   22     1    22    1.3579E+05  4.9737E+03   1.3082E+05  0.000E+00  0.000E+00  0.000E+00  3.84105E+01  1.719E-01  2.000E+01  2.000E+04  2.487E-01
   1    9   30     2     1    5.0000E+04 -2.5681E+02   5.0257E+04  0.000E+00  0.000E+00  0.000E+00  4.02410E+01  1.160E-01  2.000E+01  2.000E+04 -1.284E-02
   1    9   29     2     2    5.0257E+04 -6.3081E+02   5.0888E+04  0.000E+00  0.000E+00  0.000E+00  3.99917E+01  1.167E-01  2.000E+01  2.000E+04 -3.154E-02
   1    9   28     2     3    5.0888E+04 -1.0631E+03   5.1951E+04  0.000E+00  0.000E+00  0.000E+00  3.97428E+01  1.178E-01  2.000E+01  2.000E+04 -5.315E-02
   1    9   27     2     4    5.1951E+04 -2.8754E+03   5.4826E+04  0.000E+00  0.000E+00  0.000E+00  3.94955E+01  1.205E-01  2.000E+01  2.000E+04 -1.438E-01
   1   10   26     2     5    5.4826E+04 -1.5966E+03   5.6423E+04  0.000E+00  0.000E+00  0.000E+00  3.92485E+01  1.235E-01  2.000E+01  2.000E+04 -7.983E-02
   1   11   25     2     6    5.6423E+04 -1.4333E+03   5.7856E+04  0.000E+00  0.000E+00  0.000E+00  3.90005E+01  1.255E-01  2.000E+01  2.000E+04 -7.167E-02
   1   12   24     2     7    5.7856E+04 -1.7499E+03   5.9606E+04  0.000E+00  0.000E+00  0.000E+00  3.87526E+01  1.276E-01  2.000E+01  2.000E+04 -8.749E-02
   1   13   23     2     8    5.9606E+04 -2.7744E+02   5.9883E+04  0.000E+00  0.000E+00  0.000E+00  3.85039E+01  1.289E-01  2.000E+01  2.000E+04 -1.387E-02
   1   14   22     2     9    5.9883E+04  1.8219E+03   5.8061E+04  0.000E+00  0.000E+00  0.000E+00  3.82529E+01  1.279E-01  2.000E+01  2.000E+04  9.109E-02
   1   14   22     3     1    1.8888E+05 -8.5620E+03   1.9744E+05  0.000E+00  0.000E+00  0.000E+00  3.77337E+01  1.782E-01  2.000E+01  2.000E+04 -4.281E-01
   1   15   23     3     2    1.9744E+05 -4.1322E+02   1.9785E+05  0.000E+00  0.000E+00  0.000E+00  3.68473E+01  1.806E-01  2.000E+01  2.000E+04 -2.066E-02
   1   15   24     3     3    1.9785E+05 -2.5944E+02   1.9811E+05  0.000E+00  0.000E+00  0.000E+00  3.59586E+01  1.808E-01  2.000E+01  2.000E+04 -1.297E-02
   1   15   25     3     4    1.9811E+05 -2.4179E+02   1.9836E+05  0.000E+00  0.000E+00  0.000E+00  3.50699E+01  1.810E-01  2.000E+01  2.000E+04 -1.209E-02
   1   15   26     3     5    1.9836E+05 -8.7896E+01   1.9844E+05  0.000E+00  0.000E+00  0.000E+00  3.41811E+01  1.811E-01  2.000E+01  2.000E+04 -4.395E-03
   1   16   27     3     6    1.9844E+05  1.2768E+02   1.9832E+05  0.000E+00  0.000E+00  0.000E+00  3.32922E+01  1.811E-01  2.000E+01  2.000E+04  6.384E-03
   1   17   28     3     7    1.9832E+05  3.2180E+03   1.9510E+05  0.000E+00  0.000E+00  0.000E+00  3.24024E+01  1.801E-01  2.000E+01  2.000E+04  1.609E-01
   1   18   29     3     8    1.9510E+05  3.4211E+03   1.9168E+05  0.000E+00  0.000E+00  0.000E+00  3.15116E+01  1.783E-01  2.000E+01  2.000E+04  1.711E-01
   1   18   30     3     9    1.9168E+05 -2.3579E+02   1.9191E+05  0.000E+00  0.000E+00  0.000E+00  3.06219E+01  1.774E-01  2.000E+01  2.000E+04 -1.179E-02



1
              HEAD IN LAYER   1 AT END OF TIME STEP   1 IN STRESS PERIOD    3
  ---------------------------------------------------------------------------

          1      2      3      4      5      6      7      8      9     10
         11     12     13     14     15     16     17     18     19     20
         21     22     23     24     25     26     27     28     29     30
 .........................................................................
   1  ****** ****** ****** ****** ****** ****** ****** ****** ****** ******
      ****** ****** ****** ****** ****** ****** ****** ****** ****** ******
      ****** ****** ****** ****** ****** ****** ****** ****** ****** ******
   2  ****** ****** ****** ****** ****** ****** ****** ****** ****** ******
      ****** ****** ****** ****** ****** ****** ****** ****** ****** ******
      ****** ****** ****** ****** ****** ****** ****** ****** ****** ******
   3  ****** ****** ****** ****** ****** ****** ****** ****** ****** ******
      ****** ****** ****** ****** ****** ****** ****** ****** ****** ******
      ****** ****** ****** ****** ****** ****** ****** ****** ****** ******
   4  ****** ****** ****** ****** ****** ****** ****** ****** ****** ******
      ****** ****** ****** ****** ****** ****** ****** ****** ****** ******
      ****** ****** ****** ****** ****** ****** ****** ****** ****** ******
   5  ****** ****** ****** ****** ****** ****** ****** ****** ****** ******
      ****** ****** ****** ****** ****** ****** ****** ****** ****** ******
      ****** ****** ****** ****** ****** ****** ****** ****** ****** ******
   6  ****** ****** ****** ****** ****** ****** ****** ****** ****** ******
      ****** ****** ****** ****** ****** ****** ****** ****** ****** ******
      ****** ****** ****** ****** ****** ****** ****** ****** ****** ******
   7  ****** ****** ****** ****** ****** ****** ****** ****** ****** ******
      ****** ****** ****** ****** ****** ****** ****** ****** ****** ******
      ****** ****** ****** ****** ****** ****** ****** ****** ****** ******
   8  ****** ****** ****** ****** ****** ****** ****** ****** ****** ******
      ****** ****** ****** ****** ****** ****** ****** ****** ****** ******
      ****** ****** ****** ****** ****** ****** ****** ****** ****** ******
   9  ****** ****** ****** ****** ****** ****** ****** ****** ****** ******
      ****** ****** ****** ****** ****** ****** ****** ****** ****** ******
      ****** ****** ****** ****** ****** ****** ****** ****** ****** ******
  10  ****** ****** ****** ****** ****** ****** ****** ****** ****** ******
      ****** ****** ****** ****** ****** ****** ****** ****** ****** ******
      ****** ****** ****** ****** ****** ****** ****** ****** ****** ******
  11  ****** ****** ****** ****** ****** ****** ****** ****** ****** ******
      ****** ****** ****** ****** ****** ****** ****** ****** ****** ******
      ****** ****** ****** ****** ****** ****** ****** ****** ****** ******
  12  ****** ****** ****** ****** ****** ****** ****** ****** ****** ******
      ****** ****** ****** ****** ****** ****** ****** ****** ****** ******
      ****** ****** ****** ****** ****** ****** ****** ****** ****** ******
  13  ****** ****** ****** ****** ****** ****** ****** ****** ****** ******
      ****** ****** ****** ****** ****** ****** ****** ****** ****** ******
      ****** ****** ****** ****** ****** ****** ****** ****** ****** ******
  14  ****** ****** ****** ****** ****** ****** ****** ****** ****** ******
      ****** ****** ****** ****** ****** ****** ****** ****** ****** ******
      ****** ****** ****** ****** ****** ****** ****** ****** ****** ******
  15  ****** ****** ****** ****** ****** ****** ****** ****** ****** ******
      ****** ****** ****** ****** ****** ****** ****** ****** ****** ******
      ****** ****** ****** ****** ****** ****** ****** ****** ****** ******
  16  ****** ****** ****** ****** ****** ****** ****** ****** ****** ******
      ****** ****** ****** ****** ****** ****** ****** ****** ****** ******
      ****** ****** ****** ****** ****** ****** ****** ****** ****** ******
  17  ****** ****** ****** ****** ****** ****** ****** ****** ****** ******
      ****** ****** ****** ****** ****** ****** ****** ****** ****** ******
      ****** ****** ****** ****** ****** ****** ****** ****** ****** ******
  18  ****** ****** ****** ****** ****** ****** ****** ****** ****** ******
      ****** ****** ****** ****** ****** ****** ****** ****** ****** ******
      ****** ****** ****** ****** ****** ****** ****** ****** ****** ******
  19  ****** ****** ****** ****** ****** ****** ****** ****** ****** ******
      ****** ****** ****** ****** ****** ****** ****** ****** ****** ******
      ****** ****** ****** ****** ****** ****** ****** ****** ****** ******
  20  ****** ****** ****** ****** ****** ****** ****** ****** ****** ******
      ****** ****** ****** ****** ****** ****** ****** ****** ****** ******
      ****** ****** ****** ****** ****** ****** ****** ****** ****** ******
  21  ****** ****** ****** ****** ****** ****** ****** ****** ****** ******
      ****** ****** ****** ****** ****** ****** ****** ****** ****** ******
      ****** ****** ****** ****** ****** ****** ****** ****** ****** ******
  22  ****** ****** ****** ****** ****** ****** ****** ****** ****** ******
      ****** ****** ****** ****** ****** ****** ****** ****** ****** ******
      ****** ****** ****** ****** ****** ****** ****** ****** ****** ******
  23  ****** ****** ****** ****** ****** ****** ****** ****** ****** ******
      ****** ****** ****** ****** ****** ****** ****** ****** ****** ******
      ****** ****** ****** ****** ****** ****** ****** ****** ****** ******
  24  ****** ****** ****** ****** ****** ****** ****** ****** ****** ******
      ****** ****** ****** ****** ****** ****** ****** ****** ****** ******
      ****** ****** ****** ****** ****** ****** ****** ****** ****** ******
  25  ****** ****** ****** ****** ****** ****** ****** ****** ****** ******
      ****** ****** ****** ****** ****** ****** ****** ****** ****** ******
      ****** ****** ****** ****** ****** ****** ****** ****** ****** ******

 HEAD WILL BE SAVED ON UNIT   51 AT END OF TIME STEP    1, STRESS PERIOD    3
1
  VOLUMETRIC BUDGET FOR ENTIRE MODEL AT END OF TIME STEP    1, STRESS PERIOD   3
  ------------------------------------------------------------------------------

     CUMULATIVE VOLUMES      L**3       RATES FOR THIS TIME STEP      L**3/T
     ------------------                 ------------------------

           IN:                                      IN:
           ---                                      ---
             STORAGE =    27869537.2459               STORAGE =       55046.2157
       CONSTANT HEAD =     5082485.6673         CONSTANT HEAD =       25849.8012
               WELLS =           0.0000                 WELLS =           0.0000
            RECHARGE =     6292800.0000              RECHARGE =           0.0000
      STREAM LEAKAGE =     2440183.1145        STREAM LEAKAGE =       13562.4237

            TOTAL IN =    41685006.0277              TOTAL IN =       94458.4406

          OUT:                                     OUT:
          ----                                     ----
             STORAGE =           0.0000               STORAGE =           0.0000
       CONSTANT HEAD =           0.0000         CONSTANT HEAD =           0.0000
               WELLS =    10681352.5347                 WELLS =       38983.0384
            RECHARGE =           0.0000              RECHARGE =           0.0000
      STREAM LEAKAGE =    31003655.3911        STREAM LEAKAGE =       55475.4095

           TOTAL OUT =    41685007.9258             TOTAL OUT =       94458.4479

            IN - OUT =          -1.8980              IN - OUT =      -7.3638E-03

 PERCENT DISCREPANCY =          -0.00     PERCENT DISCREPANCY =          -0.00






         TIME SUMMARY AT END OF TIME STEP    1 IN STRESS PERIOD    3
                    SECONDS     MINUTES      HOURS       DAYS        YEARS
                    -----------------------------------------------------------
   TIME STEP LENGTH 7.86240E+06 1.31040E+05  2184.0      91.000     0.24914    
 STRESS PERIOD TIME 7.86240E+06 1.31040E+05  2184.0      91.000     0.24914    
         TOTAL TIME 2.36736E+07 3.94560E+05  6576.0      274.00     0.75017    
1
1
                            STRESS PERIOD NO.    4, LENGTH =   91.00000    
                            -----------------------------------------------

                              NUMBER OF TIME STEPS =     1

                               MULTIPLIER FOR DELT =     1.500

                            INITIAL TIME STEP SIZE =   91.00000    

 WELL NO.  LAYER   ROW   COL   STRESS RATE         
 --------------------------------------------------
      1      1     18     15      -8387.    
      2      1     17     18      -8258.    
      3      1     14     29      -8048.    
      4      1     19     28     -0.1429E+05

      4 WELLS

                 RECHARGE =  1.000000E-03

 REUSING STREAM SEGMENT DATA FROM LAST STRESS PERIOD
 
 SOLVING FOR HEAD 


     6 CALLS TO PCG ROUTINE FOR TIME STEP   1 IN STRESS PERIOD    4
    23 TOTAL ITERATIONS

 OUTPUT CONTROL FOR STRESS PERIOD    4   TIME STEP    1
    SAVE BUDGET
    SAVE HEAD FOR ALL LAYERS
    PRINT HEAD FOR ALL LAYERS
 UBDSV2 SAVING "STREAMFLOW OUT  " ON UNIT  50 AT TIME STEP  1, STRESS PERIOD   4



 STREAM LISTING     PERIOD      4   STEP        1

 LAYER ROW COL. STREAM  RCH.  FLOW INTO     FLOW TO   FLOW OUT OF   OVRLND.     DIRECT     STREAM       STREAM     STREAM     STREAM   STREAMBED  STREAMBED
                SEG.NO.  NO.  STRM. RCH.    AQUIFER    STRM. RCH.    RUNOFF     PRECIP       ET          HEAD       DEPTH      WIDTH   CONDCTNC.   GRADIENT

   1   13    1     1     1    1.0000E+05 -2.5310E+03   1.0253E+05  0.000E+00  0.000E+00  0.000E+00  4.84071E+01  1.457E-01  2.000E+01  2.000E+04 -1.266E-01
   1   13    2     1     2    1.0253E+05 -3.6059E+03   1.0614E+05  0.000E+00  0.000E+00  0.000E+00  4.79325E+01  1.484E-01  2.000E+01  2.000E+04 -1.803E-01
   1   14    3     1     3    1.0614E+05 -6.2150E+02   1.0676E+05  0.000E+00  0.000E+00  0.000E+00  4.74570E+01  1.502E-01  2.000E+01  2.000E+04 -3.108E-02
   1   15    4     1     4    1.0676E+05 -5.8731E+02   1.0735E+05  0.000E+00  0.000E+00  0.000E+00  4.69802E+01  1.507E-01  2.000E+01  2.000E+04 -2.937E-02
   1   16    5     1     5    1.0735E+05 -1.9987E+03   1.0934E+05  0.000E+00  0.000E+00  0.000E+00  4.65041E+01  1.518E-01  2.000E+01  2.000E+04 -9.994E-02
   1   16    6     1     6    1.0934E+05 -1.2368E+03   1.1058E+05  0.000E+00  0.000E+00  0.000E+00  4.60281E+01  1.531E-01  2.000E+01  2.000E+04 -6.184E-02
   1   16    7     1     7    1.1058E+05 -1.1816E+03   1.1176E+05  0.000E+00  0.000E+00  0.000E+00  4.55519E+01  1.541E-01  2.000E+01  2.000E+04 -5.908E-02
   1   16    8     1     8    1.1176E+05 -1.1252E+03   1.1289E+05  0.000E+00  0.000E+00  0.000E+00  4.50756E+01  1.551E-01  2.000E+01  2.000E+04 -5.626E-02
   1   16    9     1     9    1.1289E+05 -1.0366E+03   1.1392E+05  0.000E+00  0.000E+00  0.000E+00  4.45992E+01  1.560E-01  2.000E+01  2.000E+04 -5.183E-02
   1   16   10     1    10    1.1392E+05 -8.9762E+02   1.1482E+05  0.000E+00  0.000E+00  0.000E+00  4.41227E+01  1.568E-01  2.000E+01  2.000E+04 -4.488E-02
   1   16   11     1    11    1.1482E+05 -6.8253E+02   1.1550E+05  0.000E+00  0.000E+00  0.000E+00  4.36461E+01  1.574E-01  2.000E+01  2.000E+04 -3.413E-02
   1   16   12     1    12    1.1550E+05 -5.3443E+02   1.1604E+05  0.000E+00  0.000E+00  0.000E+00  4.31693E+01  1.579E-01  2.000E+01  2.000E+04 -2.672E-02
   1   15   13     1    13    1.1604E+05 -6.6217E+02   1.1670E+05  0.000E+00  0.000E+00  0.000E+00  4.26925E+01  1.584E-01  2.000E+01  2.000E+04 -3.311E-02
   1   14   14     1    14    1.1670E+05 -1.2448E+03   1.1795E+05  0.000E+00  0.000E+00  0.000E+00  4.22160E+01  1.592E-01  2.000E+01  2.000E+04 -6.224E-02
   1   13   15     1    15    1.1795E+05 -1.9930E+03   1.1994E+05  0.000E+00  0.000E+00  0.000E+00  4.17401E+01  1.605E-01  2.000E+01  2.000E+04 -9.965E-02
   1   12   16     1    16    1.1994E+05 -3.3670E+03   1.2331E+05  0.000E+00  0.000E+00  0.000E+00  4.12650E+01  1.627E-01  2.000E+01  2.000E+04 -1.683E-01
   1   12   17     1    17    1.2331E+05 -1.8935E+03   1.2520E+05  0.000E+00  0.000E+00  0.000E+00  4.07898E+01  1.648E-01  2.000E+01  2.000E+04 -9.468E-02
   1   12   18     1    18    1.2520E+05 -1.7621E+03   1.2696E+05  0.000E+00  0.000E+00  0.000E+00  4.03140E+01  1.662E-01  2.000E+01  2.000E+04 -8.811E-02
   1   12   19     1    19    1.2696E+05 -2.5551E+03   1.2952E+05  0.000E+00  0.000E+00  0.000E+00  3.98384E+01  1.679E-01  2.000E+01  2.000E+04 -1.278E-01
   1   13   20     1    20    1.2952E+05 -1.2151E+03   1.3073E+05  0.000E+00  0.000E+00  0.000E+00  3.93626E+01  1.694E-01  2.000E+01  2.000E+04 -6.076E-02
   1   14   21     1    21    1.3073E+05 -4.7869E+02   1.3121E+05  0.000E+00  0.000E+00  0.000E+00  3.88860E+01  1.701E-01  2.000E+01  2.000E+04 -2.393E-02
   1   14   22     1    22    1.3121E+05  5.0210E+03   1.2619E+05  0.000E+00  0.000E+00  0.000E+00  3.84069E+01  1.683E-01  2.000E+01  2.000E+04  2.511E-01
   1    9   30     2     1    5.0000E+04 -1.6975E+02   5.0170E+04  0.000E+00  0.000E+00  0.000E+00  4.02410E+01  1.160E-01  2.000E+01  2.000E+04 -8.487E-03
   1    9   29     2     2    5.0170E+04 -5.3793E+02   5.0708E+04  0.000E+00  0.000E+00  0.000E+00  3.99915E+01  1.165E-01  2.000E+01  2.000E+04 -2.690E-02
   1    9   28     2     3    5.0708E+04 -9.5284E+02   5.1661E+04  0.000E+00  0.000E+00  0.000E+00  3.97425E+01  1.175E-01  2.000E+01  2.000E+04 -4.764E-02
   1    9   27     2     4    5.1661E+04 -2.6280E+03   5.4289E+04  0.000E+00  0.000E+00  0.000E+00  3.94950E+01  1.200E-01  2.000E+01  2.000E+04 -1.314E-01
   1   10   26     2     5    5.4289E+04 -1.4515E+03   5.5740E+04  0.000E+00  0.000E+00  0.000E+00  3.92477E+01  1.227E-01  2.000E+01  2.000E+04 -7.258E-02
   1   11   25     2     6    5.5740E+04 -1.3270E+03   5.7067E+04  0.000E+00  0.000E+00  0.000E+00  3.89996E+01  1.246E-01  2.000E+01  2.000E+04 -6.635E-02
   1   12   24     2     7    5.7067E+04 -1.6632E+03   5.8730E+04  0.000E+00  0.000E+00  0.000E+00  3.87515E+01  1.265E-01  2.000E+01  2.000E+04 -8.316E-02
   1   13   23     2     8    5.8730E+04 -3.0466E+02   5.9035E+04  0.000E+00  0.000E+00  0.000E+00  3.85028E+01  1.278E-01  2.000E+01  2.000E+04 -1.523E-02
   1   14   22     2     9    5.9035E+04  1.9175E+03   5.7117E+04  0.000E+00  0.000E+00  0.000E+00  3.82518E+01  1.268E-01  2.000E+01  2.000E+04  9.588E-02
   1   14   22     3     1    1.8331E+05 -8.5053E+03   1.9181E+05  0.000E+00  0.000E+00  0.000E+00  3.77306E+01  1.751E-01  2.000E+01  2.000E+04 -4.253E-01
   1   15   23     3     2    1.9181E+05 -3.6953E+02   1.9218E+05  0.000E+00  0.000E+00  0.000E+00  3.68442E+01  1.775E-01  2.000E+01  2.000E+04 -1.848E-02
   1   15   24     3     3    1.9218E+05 -2.4751E+02   1.9243E+05  0.000E+00  0.000E+00  0.000E+00  3.59555E+01  1.777E-01  2.000E+01  2.000E+04 -1.238E-02
   1   15   25     3     4    1.9243E+05 -2.3021E+02   1.9266E+05  0.000E+00  0.000E+00  0.000E+00  3.50667E+01  1.778E-01  2.000E+01  2.000E+04 -1.151E-02
   1   15   26     3     5    1.9266E+05 -8.6041E+01   1.9275E+05  0.000E+00  0.000E+00  0.000E+00  3.41779E+01  1.779E-01  2.000E+01  2.000E+04 -4.302E-03
   1   16   27     3     6    1.9275E+05  1.4429E+02   1.9260E+05  0.000E+00  0.000E+00  0.000E+00  3.32890E+01  1.779E-01  2.000E+01  2.000E+04  7.215E-03
   1   17   28     3     7    1.9260E+05  3.3502E+03   1.8925E+05  0.000E+00  0.000E+00  0.000E+00  3.23992E+01  1.769E-01  2.000E+01  2.000E+04  1.675E-01
   1   18   29     3     8    1.8925E+05  3.7596E+03   1.8549E+05  0.000E+00  0.000E+00  0.000E+00  3.15083E+01  1.750E-01  2.000E+01  2.000E+04  1.880E-01
   1   18   30     3     9    1.8549E+05 -4.9135E+01   1.8554E+05  0.000E+00  0.000E+00  0.000E+00  3.06184E+01  1.739E-01  2.000E+01  2.000E+04 -2.457E-03



1
              HEAD IN LAYER   1 AT END OF TIME STEP   1 IN STRESS PERIOD    4
  ---------------------------------------------------------------------------

          1      2      3      4      5      6      7      8      9     10
         11     12     13     14     15     16     17     18     19     20
         21     22     23     24     25     26     27     28     29     30
 .........................................................................
   1  ****** ****** ****** ****** ****** ****** ****** ****** ****** ******
      ****** ****** ****** ****** ****** ****** ****** ****** ****** ******
      ****** ****** ****** ****** ****** ****** ****** ****** ****** ******
   2  ****** ****** ****** ****** ****** ****** ****** ****** ****** ******
      ****** ****** ****** ****** ****** ****** ****** ****** ****** ******
      ****** ****** ****** ****** ****** ****** ****** ****** ****** ******
   3  ****** ****** ****** ****** ****** ****** ****** ****** ****** ******
      ****** ****** ****** ****** ****** ****** ****** ****** ****** ******
      ****** ****** ****** ****** ****** ****** ****** ****** ****** ******
   4  ****** ****** ****** ****** ****** ****** ****** ****** ****** ******
      ****** ****** ****** ****** ****** ****** ****** ****** ****** ******
      ****** ****** ****** ****** ****** ****** ****** ****** ****** ******
   5  ****** ****** ****** ****** ****** ****** ****** ****** ****** ******
      ****** ****** ****** ****** ****** ****** ****** ****** ****** ******
      ****** ****** ****** ****** ****** ****** ****** ****** ****** ******
   6  ****** ****** ****** ****** ****** ****** ****** ****** ****** ******
      ****** ****** ****** ****** ****** ****** ****** ****** ****** ******
      ****** ****** ****** ****** ****** ****** ****** ****** ****** ******
   7  ****** ****** ****** ****** ****** ****** ****** ****** ****** ******
      ****** ****** ****** ****** ****** ****** ****** ****** ****** ******
      ****** ****** ****** ****** ****** ****** ****** ****** ****** ******
   8  ****** ****** ****** ****** ****** ****** ****** ****** ****** ******
      ****** ****** ****** ****** ****** ****** ****** ****** ****** ******
      ****** ****** ****** ****** ****** ****** ****** ****** ****** ******
   9  ****** ****** ****** ****** ****** ****** ****** ****** ****** ******
      ****** ****** ****** ****** ****** ****** ****** ****** ****** ******
      ****** ****** ****** ****** ****** ****** ****** ****** ****** ******
  10  ****** ****** ****** ****** ****** ****** ****** ****** ****** ******
      ****** ****** ****** ****** ****** ****** ****** ****** ****** ******
      ****** ****** ****** ****** ****** ****** ****** ****** ****** ******
  11  ****** ****** ****** ****** ****** ****** ****** ****** ****** ******
      ****** ****** ****** ****** ****** ****** ****** ****** ****** ******
      ****** ****** ****** ****** ****** ****** ****** ****** ****** ******
  12  ****** ****** ****** ****** ****** ****** ****** ****** ****** ******
      ****** ****** ****** ****** ****** ****** ****** ****** ****** ******
      ****** ****** ****** ****** ****** ****** ****** ****** ****** ******
  13  ****** ****** ****** ****** ****** ****** ****** ****** ****** ******
      ****** ****** ****** ****** ****** ****** ****** ****** ****** ******
      ****** ****** ****** ****** ****** ****** ****** ****** ****** ******
  14  ****** ****** ****** ****** ****** ****** ****** ****** ****** ******
      ****** ****** ****** ****** ****** ****** ****** ****** ****** ******
      ****** ****** ****** ****** ****** ****** ****** ****** ****** ******
  15  ****** ****** ****** ****** ****** ****** ****** ****** ****** ******
      ****** ****** ****** ****** ****** ****** ****** ****** ****** ******
      ****** ****** ****** ****** ****** ****** ****** ****** ****** ******
  16  ****** ****** ****** ****** ****** ****** ****** ****** ****** ******
      ****** ****** ****** ****** ****** ****** ****** ****** ****** ******
      ****** ****** ****** ****** ****** ****** ****** ****** ****** ******
  17  ****** ****** ****** ****** ****** ****** ****** ****** ****** ******
      ****** ****** ****** ****** ****** ****** ****** ****** ****** ******
      ****** ****** ****** ****** ****** ****** ****** ****** ****** ******
  18  ****** ****** ****** ****** ****** ****** ****** ****** ****** ******
      ****** ****** ****** ****** ****** ****** ****** ****** ****** ******
      ****** ****** ****** ****** ****** ****** ****** ****** ****** ******
  19  ****** ****** ****** ****** ****** ****** ****** ****** ****** ******
      ****** ****** ****** ****** ****** ****** ****** ****** ****** ******
      ****** ****** ****** ****** ****** ****** ****** ****** ****** ******
  20  ****** ****** ****** ****** ****** ****** ****** ****** ****** ******
      ****** ****** ****** ****** ****** ****** ****** ****** ****** ******
      ****** ****** ****** ****** ****** ****** ****** ****** ****** ******
  21  ****** ****** ****** ****** ****** ****** ****** ****** ****** ******
      ****** ****** ****** ****** ****** ****** ****** ****** ****** ******
      ****** ****** ****** ****** ****** ****** ****** ****** ****** ******
  22  ****** ****** ****** ****** ****** ****** ****** ****** ****** ******
      ****** ****** ****** ****** ****** ****** ****** ****** ****** ******
      ****** ****** ****** ****** ****** ****** ****** ****** ****** ******
  23  ****** ****** ****** ****** ****** ****** ****** ****** ****** ******
      ****** ****** ****** ****** ****** ****** ****** ****** ****** ******
      ****** ****** ****** ****** ****** ****** ****** ****** ****** ******
  24  ****** ****** ****** ****** ****** ****** ****** ****** ****** ******
      ****** ****** ****** ****** ****** ****** ****** ****** ****** ******
      ****** ****** ****** ****** ****** ****** ****** ****** ****** ******
  25  ****** ****** ****** ****** ****** ****** ****** ****** ****** ******
      ****** ****** ****** ****** ****** ****** ****** ****** ****** ******
      ****** ****** ****** ****** ****** ****** ****** ****** ****** ******

 HEAD WILL BE SAVED ON UNIT   51 AT END OF TIME STEP    1, STRESS PERIOD    4
1
  VOLUMETRIC BUDGET FOR ENTIRE MODEL AT END OF TIME STEP    1, STRESS PERIOD   4
  ------------------------------------------------------------------------------

     CUMULATIVE VOLUMES      L**3       RATES FOR THIS TIME STEP      L**3/T
     ------------------                 ------------------------

           IN:                                      IN:
           ---                                      ---
             STORAGE =    29547787.4561               STORAGE =       18442.3100
       CONSTANT HEAD =     7674845.9043         CONSTANT HEAD =       28487.4751
               WELLS =           0.0000                 WELLS =           0.0000
            RECHARGE =     8804400.0000              RECHARGE =       27600.0000
      STREAM LEAKAGE =     3731711.8025        STREAM LEAKAGE =       14192.6229

            TOTAL IN =    49758745.1629              TOTAL IN =       88722.4081

          OUT:                                     OUT:
          ----                                     ----
             STORAGE =         525.3623               STORAGE =           5.7732
       CONSTANT HEAD =           0.0000         CONSTANT HEAD =           0.0000
               WELLS =    14228809.0334                 WELLS =       38983.0384
            RECHARGE =           0.0000              RECHARGE =           0.0000
      STREAM LEAKAGE =    35529412.7358        STREAM LEAKAGE =       49733.5972

           TOTAL OUT =    49758747.1316             TOTAL OUT =       88722.4089

            IN - OUT =          -1.9686              IN - OUT =      -7.7600E-04

 PERCENT DISCREPANCY =          -0.00     PERCENT DISCREPANCY =          -0.00






         TIME SUMMARY AT END OF TIME STEP    1 IN STRESS PERIOD    4
                    SECONDS     MINUTES      HOURS       DAYS        YEARS
                    -----------------------------------------------------------
   TIME STEP LENGTH 7.86240E+06 1.31040E+05  2184.0      91.000     0.24914    
 STRESS PERIOD TIME 7.86240E+06 1.31040E+05  2184.0      91.000     0.24914    
         TOTAL TIME 3.15360E+07 5.25600E+05  8760.0      365.00     0.99932    
1
1
                            STRESS PERIOD NO.    5, LENGTH =   92.00000    
                            -----------------------------------------------

                              NUMBER OF TIME STEPS =     1

                               MULTIPLIER FOR DELT =     1.500

                            INITIAL TIME STEP SIZE =   92.00000    

 WELL NO.  LAYER   ROW   COL   STRESS RATE         
 --------------------------------------------------
      1      1     18     15      -8387.    
      2      1     17     18      -8258.    
      3      1     14     29      -8048.    
      4      1     19     28     -0.1429E+05

      4 WELLS

                 RECHARGE =  5.000000E-04

 REUSING STREAM SEGMENT DATA FROM LAST STRESS PERIOD
 
 SOLVING FOR HEAD 


     7 CALLS TO PCG ROUTINE FOR TIME STEP   1 IN STRESS PERIOD    5
    26 TOTAL ITERATIONS

 OUTPUT CONTROL FOR STRESS PERIOD    5   TIME STEP    1
    SAVE BUDGET
    SAVE HEAD FOR ALL LAYERS
    PRINT HEAD FOR ALL LAYERS
 UBDSV2 SAVING "STREAMFLOW OUT  " ON UNIT  50 AT TIME STEP  1, STRESS PERIOD   5



 STREAM LISTING     PERIOD      5   STEP        1

 LAYER ROW COL. STREAM  RCH.  FLOW INTO     FLOW TO   FLOW OUT OF   OVRLND.     DIRECT     STREAM       STREAM     STREAM     STREAM   STREAMBED  STREAMBED
                SEG.NO.  NO.  STRM. RCH.    AQUIFER    STRM. RCH.    RUNOFF     PRECIP       ET          HEAD       DEPTH      WIDTH   CONDCTNC.   GRADIENT

   1   13    1     1     1    1.0000E+05 -2.1253E+03   1.0213E+05  0.000E+00  0.000E+00  0.000E+00  4.84069E+01  1.456E-01  2.000E+01  2.000E+04 -1.063E-01
   1   13    2     1     2    1.0213E+05 -3.1478E+03   1.0527E+05  0.000E+00  0.000E+00  0.000E+00  4.79319E+01  1.478E-01  2.000E+01  2.000E+04 -1.574E-01
   1   14    3     1     3    1.0527E+05 -4.9984E+02   1.0577E+05  0.000E+00  0.000E+00  0.000E+00  4.74562E+01  1.494E-01  2.000E+01  2.000E+04 -2.499E-02
   1   15    4     1     4    1.0577E+05 -4.5810E+02   1.0623E+05  0.000E+00  0.000E+00  0.000E+00  4.69793E+01  1.498E-01  2.000E+01  2.000E+04 -2.291E-02
   1   16    5     1     5    1.0623E+05 -1.5550E+03   1.0779E+05  0.000E+00  0.000E+00  0.000E+00  4.65029E+01  1.507E-01  2.000E+01  2.000E+04 -7.775E-02
   1   16    6     1     6    1.0779E+05 -9.7757E+02   1.0876E+05  0.000E+00  0.000E+00  0.000E+00  4.60267E+01  1.517E-01  2.000E+01  2.000E+04 -4.888E-02
   1   16    7     1     7    1.0876E+05 -9.3249E+02   1.0970E+05  0.000E+00  0.000E+00  0.000E+00  4.55502E+01  1.525E-01  2.000E+01  2.000E+04 -4.662E-02
   1   16    8     1     8    1.0970E+05 -8.7879E+02   1.1057E+05  0.000E+00  0.000E+00  0.000E+00  4.50737E+01  1.533E-01  2.000E+01  2.000E+04 -4.394E-02
   1   16    9     1     9    1.1057E+05 -7.9156E+02   1.1137E+05  0.000E+00  0.000E+00  0.000E+00  4.45972E+01  1.540E-01  2.000E+01  2.000E+04 -3.958E-02
   1   16   10     1    10    1.1137E+05 -6.5386E+02   1.1202E+05  0.000E+00  0.000E+00  0.000E+00  4.41205E+01  1.546E-01  2.000E+01  2.000E+04 -3.269E-02
   1   16   11     1    11    1.1202E+05 -4.3483E+02   1.1246E+05  0.000E+00  0.000E+00  0.000E+00  4.36437E+01  1.550E-01  2.000E+01  2.000E+04 -2.174E-02
   1   16   12     1    12    1.1246E+05 -8.8146E+01   1.1254E+05  0.000E+00  0.000E+00  0.000E+00  4.31666E+01  1.552E-01  2.000E+01  2.000E+04 -4.407E-03
   1   15   13     1    13    1.1254E+05 -2.0720E+02   1.1275E+05  0.000E+00  0.000E+00  0.000E+00  4.26895E+01  1.554E-01  2.000E+01  2.000E+04 -1.036E-02
   1   14   14     1    14    1.1275E+05 -7.7093E+02   1.1352E+05  0.000E+00  0.000E+00  0.000E+00  4.22126E+01  1.558E-01  2.000E+01  2.000E+04 -3.855E-02
   1   13   15     1    15    1.1352E+05 -1.5115E+03   1.1503E+05  0.000E+00  0.000E+00  0.000E+00  4.17363E+01  1.567E-01  2.000E+01  2.000E+04 -7.557E-02
   1   12   16     1    16    1.1503E+05 -2.8570E+03   1.1789E+05  0.000E+00  0.000E+00  0.000E+00  4.12608E+01  1.585E-01  2.000E+01  2.000E+04 -1.428E-01
   1   12   17     1    17    1.1789E+05 -1.5440E+03   1.1943E+05  0.000E+00  0.000E+00  0.000E+00  4.07853E+01  1.603E-01  2.000E+01  2.000E+04 -7.720E-02
   1   12   18     1    18    1.1943E+05 -1.4280E+03   1.2086E+05  0.000E+00  0.000E+00  0.000E+00  4.03092E+01  1.615E-01  2.000E+01  2.000E+04 -7.140E-02
   1   12   19     1    19    1.2086E+05 -2.1556E+03   1.2302E+05  0.000E+00  0.000E+00  0.000E+00  3.98334E+01  1.629E-01  2.000E+01  2.000E+04 -1.078E-01
   1   13   20     1    20    1.2302E+05 -8.4615E+02   1.2386E+05  0.000E+00  0.000E+00  0.000E+00  3.93573E+01  1.641E-01  2.000E+01  2.000E+04 -4.231E-02
   1   14   21     1    21    1.2386E+05 -6.1030E+01   1.2392E+05  0.000E+00  0.000E+00  0.000E+00  3.88804E+01  1.645E-01  2.000E+01  2.000E+04 -3.051E-03
   1   14   22     1    22    1.2392E+05  5.1063E+03   1.1882E+05  0.000E+00  0.000E+00  0.000E+00  3.84011E+01  1.625E-01  2.000E+01  2.000E+04  2.553E-01
   1    9   30     2     1    5.0000E+04  5.7373E+01   4.9943E+04  0.000E+00  0.000E+00  0.000E+00  4.02408E+01  1.158E-01  2.000E+01  2.000E+04  2.869E-03
   1    9   29     2     2    4.9943E+04 -3.0778E+02   5.0250E+04  0.000E+00  0.000E+00  0.000E+00  3.99910E+01  1.160E-01  2.000E+01  2.000E+04 -1.539E-02
   1    9   28     2     3    5.0250E+04 -7.1212E+02   5.0963E+04  0.000E+00  0.000E+00  0.000E+00  3.97417E+01  1.167E-01  2.000E+01  2.000E+04 -3.561E-02
   1    9   27     2     4    5.0963E+04 -2.2528E+03   5.3215E+04  0.000E+00  0.000E+00  0.000E+00  3.94937E+01  1.187E-01  2.000E+01  2.000E+04 -1.126E-01
   1   10   26     2     5    5.3215E+04 -1.1217E+03   5.4337E+04  0.000E+00  0.000E+00  0.000E+00  3.92460E+01  1.210E-01  2.000E+01  2.000E+04 -5.608E-02
   1   11   25     2     6    5.4337E+04 -1.0239E+03   5.5361E+04  0.000E+00  0.000E+00  0.000E+00  3.89975E+01  1.225E-01  2.000E+01  2.000E+04 -5.120E-02
   1   12   24     2     7    5.5361E+04 -1.3871E+03   5.6748E+04  0.000E+00  0.000E+00  0.000E+00  3.87491E+01  1.241E-01  2.000E+01  2.000E+04 -6.936E-02
   1   13   23     2     8    5.6748E+04 -2.3733E+02   5.6985E+04  0.000E+00  0.000E+00  0.000E+00  3.85002E+01  1.252E-01  2.000E+01  2.000E+04 -1.187E-02
   1   14   22     2     9    5.6985E+04  2.0631E+03   5.4922E+04  0.000E+00  0.000E+00  0.000E+00  3.82490E+01  1.240E-01  2.000E+01  2.000E+04  1.032E-01
   1   14   22     3     1    1.7374E+05 -8.4125E+03   1.8215E+05  0.000E+00  0.000E+00  0.000E+00  3.77252E+01  1.696E-01  2.000E+01  2.000E+04 -4.206E-01
   1   15   23     3     2    1.8215E+05 -2.5960E+02   1.8241E+05  0.000E+00  0.000E+00  0.000E+00  3.68388E+01  1.721E-01  2.000E+01  2.000E+04 -1.298E-02
   1   15   24     3     3    1.8241E+05 -1.6868E+02   1.8258E+05  0.000E+00  0.000E+00  0.000E+00  3.59500E+01  1.722E-01  2.000E+01  2.000E+04 -8.434E-03
   1   15   25     3     4    1.8258E+05 -1.5249E+02   1.8273E+05  0.000E+00  0.000E+00  0.000E+00  3.50612E+01  1.723E-01  2.000E+01  2.000E+04 -7.625E-03
   1   15   26     3     5    1.8273E+05 -8.7645E+00   1.8274E+05  0.000E+00  0.000E+00  0.000E+00  3.41723E+01  1.723E-01  2.000E+01  2.000E+04 -4.382E-04
   1   16   27     3     6    1.8274E+05  2.4342E+02   1.8250E+05  0.000E+00  0.000E+00  0.000E+00  3.32834E+01  1.723E-01  2.000E+01  2.000E+04  1.217E-02
   1   17   28     3     7    1.8250E+05  3.6506E+03   1.7885E+05  0.000E+00  0.000E+00  0.000E+00  3.23934E+01  1.712E-01  2.000E+01  2.000E+04  1.825E-01
   1   18   29     3     8    1.7885E+05  4.1976E+03   1.7465E+05  0.000E+00  0.000E+00  0.000E+00  3.15023E+01  1.689E-01  2.000E+01  2.000E+04  2.099E-01
   1   18   30     3     9    1.7465E+05  2.4844E+02   1.7440E+05  0.000E+00  0.000E+00  0.000E+00  3.06121E+01  1.677E-01  2.000E+01  2.000E+04  1.242E-02



1
              HEAD IN LAYER   1 AT END OF TIME STEP   1 IN STRESS PERIOD    5
  ---------------------------------------------------------------------------

          1      2      3      4      5      6      7      8      9     10
         11     12     13     14     15     16     17     18     19     20
         21     22     23     24     25     26     27     28     29     30
 .........................................................................
   1  ****** ****** ****** ****** ****** ****** ****** ****** ****** ******
      ****** ****** ****** ****** ****** ****** ****** ****** ****** ******
      ****** ****** ****** ****** ****** ****** ****** ****** ****** ******
   2  ****** ****** ****** ****** ****** ****** ****** ****** ****** ******
      ****** ****** ****** ****** ****** ****** ****** ****** ****** ******
      ****** ****** ****** ****** ****** ****** ****** ****** ****** ******
   3  ****** ****** ****** ****** ****** ****** ****** ****** ****** ******
      ****** ****** ****** ****** ****** ****** ****** ****** ****** ******
      ****** ****** ****** ****** ****** ****** ****** ****** ****** ******
   4  ****** ****** ****** ****** ****** ****** ****** ****** ****** ******
      ****** ****** ****** ****** ****** ****** ****** ****** ****** ******
      ****** ****** ****** ****** ****** ****** ****** ****** ****** ******
   5  ****** ****** ****** ****** ****** ****** ****** ****** ****** ******
      ****** ****** ****** ****** ****** ****** ****** ****** ****** ******
      ****** ****** ****** ****** ****** ****** ****** ****** ****** ******
   6  ****** ****** ****** ****** ****** ****** ****** ****** ****** ******
      ****** ****** ****** ****** ****** ****** ****** ****** ****** ******
      ****** ****** ****** ****** ****** ****** ****** ****** ****** ******
   7  ****** ****** ****** ****** ****** ****** ****** ****** ****** ******
      ****** ****** ****** ****** ****** ****** ****** ****** ****** ******
      ****** ****** ****** ****** ****** ****** ****** ****** ****** ******
   8  ****** ****** ****** ****** ****** ****** ****** ****** ****** ******
      ****** ****** ****** ****** ****** ****** ****** ****** ****** ******
      ****** ****** ****** ****** ****** ****** ****** ****** ****** ******
   9  ****** ****** ****** ****** ****** ****** ****** ****** ****** ******
      ****** ****** ****** ****** ****** ****** ****** ****** ****** ******
      ****** ****** ****** ****** ****** ****** ****** ****** ****** ******
  10  ****** ****** ****** ****** ****** ****** ****** ****** ****** ******
      ****** ****** ****** ****** ****** ****** ****** ****** ****** ******
      ****** ****** ****** ****** ****** ****** ****** ****** ****** ******
  11  ****** ****** ****** ****** ****** ****** ****** ****** ****** ******
      ****** ****** ****** ****** ****** ****** ****** ****** ****** ******
      ****** ****** ****** ****** ****** ****** ****** ****** ****** ******
  12  ****** ****** ****** ****** ****** ****** ****** ****** ****** ******
      ****** ****** ****** ****** ****** ****** ****** ****** ****** ******
      ****** ****** ****** ****** ****** ****** ****** ****** ****** ******
  13  ****** ****** ****** ****** ****** ****** ****** ****** ****** ******
      ****** ****** ****** ****** ****** ****** ****** ****** ****** ******
      ****** ****** ****** ****** ****** ****** ****** ****** ****** ******
  14  ****** ****** ****** ****** ****** ****** ****** ****** ****** ******
      ****** ****** ****** ****** ****** ****** ****** ****** ****** ******
      ****** ****** ****** ****** ****** ****** ****** ****** ****** ******
  15  ****** ****** ****** ****** ****** ****** ****** ****** ****** ******
      ****** ****** ****** ****** ****** ****** ****** ****** ****** ******
      ****** ****** ****** ****** ****** ****** ****** ****** ****** ******
  16  ****** ****** ****** ****** ****** ****** ****** ****** ****** ******
      ****** ****** ****** ****** ****** ****** ****** ****** ****** ******
      ****** ****** ****** ****** ****** ****** ****** ****** ****** ******
  17  ****** ****** ****** ****** ****** ****** ****** ****** ****** ******
      ****** ****** ****** ****** ****** ****** ****** ****** ****** ******
      ****** ****** ****** ****** ****** ****** ****** ****** ****** ******
  18  ****** ****** ****** ****** ****** ****** ****** ****** ****** ******
      ****** ****** ****** ****** ****** ****** ****** ****** ****** ******
      ****** ****** ****** ****** ****** ****** ****** ****** ****** ******
  19  ****** ****** ****** ****** ****** ****** ****** ****** ****** ******
      ****** ****** ****** ****** ****** ****** ****** ****** ****** ******
      ****** ****** ****** ****** ****** ****** ****** ****** ****** ******
  20  ****** ****** ****** ****** ****** ****** ****** ****** ****** ******
      ****** ****** ****** ****** ****** ****** ****** ****** ****** ******
      ****** ****** ****** ****** ****** ****** ****** ****** ****** ******
  21  ****** ****** ****** ****** ****** ****** ****** ****** ****** ******
      ****** ****** ****** ****** ****** ****** ****** ****** ****** ******
      ****** ****** ****** ****** ****** ****** ****** ****** ****** ******
  22  ****** ****** ****** ****** ****** ****** ****** ****** ****** ******
      ****** ****** ****** ****** ****** ****** ****** ****** ****** ******
      ****** ****** ****** ****** ****** ****** ****** ****** ****** ******
  23  ****** ****** ****** ****** ****** ****** ****** ****** ****** ******
      ****** ****** ****** ****** ****** ****** ****** ****** ****** ******
      ****** ****** ****** ****** ****** ****** ****** ****** ****** ******
  24  ****** ****** ****** ****** ****** ****** ****** ****** ****** ******
      ****** ****** ****** ****** ****** ****** ****** ****** ****** ******
      ****** ****** ****** ****** ****** ****** ****** ****** ****** ******
  25  ****** ****** ****** ****** ****** ****** ****** ****** ****** ******
      ****** ****** ****** ****** ****** ****** ****** ****** ****** ******
      ****** ****** ****** ****** ****** ****** ****** ****** ****** ******

 HEAD WILL BE SAVED ON UNIT   51 AT END OF TIME STEP    1, STRESS PERIOD    5
1
  VOLUMETRIC BUDGET FOR ENTIRE MODEL AT END OF TIME STEP    1, STRESS PERIOD   5
  ------------------------------------------------------------------------------

     CUMULATIVE VOLUMES      L**3       RATES FOR THIS TIME STEP      L**3/T
     ------------------                 ------------------------

           IN:                                      IN:
           ---                                      ---
             STORAGE =    31218715.7916               STORAGE =       18162.2645
       CONSTANT HEAD =    10565795.8791         CONSTANT HEAD =       31423.3693
               WELLS =           0.0000                 WELLS =           0.0000
            RECHARGE =    10074000.0000              RECHARGE =       13800.0000
      STREAM LEAKAGE =     5163859.9057        STREAM LEAKAGE =       15566.8272

            TOTAL IN =    57022371.5765              TOTAL IN =       78952.4610

          OUT:                                     OUT:
          ----                                     ----
             STORAGE =         525.3623               STORAGE =           0.0000
       CONSTANT HEAD =           0.0000         CONSTANT HEAD =           0.0000
               WELLS =    17815248.5706                 WELLS =       38983.0384
            RECHARGE =           0.0000              RECHARGE =           0.0000
      STREAM LEAKAGE =    39206599.8920        STREAM LEAKAGE =       39969.4256

           TOTAL OUT =    57022373.8249             TOTAL OUT =       78952.4641

            IN - OUT =          -2.2485              IN - OUT =      -3.0416E-03

 PERCENT DISCREPANCY =          -0.00     PERCENT DISCREPANCY =          -0.00






         TIME SUMMARY AT END OF TIME STEP    1 IN STRESS PERIOD    5
                    SECONDS     MINUTES      HOURS       DAYS        YEARS
                    -----------------------------------------------------------
   TIME STEP LENGTH 7.94880E+06 1.32480E+05  2208.0      92.000     0.25188    
 STRESS PERIOD TIME 7.94880E+06 1.32480E+05  2208.0      92.000     0.25188    
         TOTAL TIME 3.94848E+07 6.58080E+05  10968.      457.00      1.2512    
1
1
                            STRESS PERIOD NO.    6, LENGTH =   91.00000    
                            -----------------------------------------------

                              NUMBER OF TIME STEPS =     1

                               MULTIPLIER FOR DELT =     1.500

                            INITIAL TIME STEP SIZE =   91.00000    

 WELL NO.  LAYER   ROW   COL   STRESS RATE         
 --------------------------------------------------
      1      1     18     15      -8387.    
      2      1     17     18      -8258.    
      3      1     14     29      -8048.    
      4      1     19     28     -0.1429E+05

      4 WELLS

                 RECHARGE =  2.000000E-03

 REUSING STREAM SEGMENT DATA FROM LAST STRESS PERIOD
 
 SOLVING FOR HEAD 


     7 CALLS TO PCG ROUTINE FOR TIME STEP   1 IN STRESS PERIOD    6
    26 TOTAL ITERATIONS

 OUTPUT CONTROL FOR STRESS PERIOD    6   TIME STEP    1
    SAVE BUDGET
    SAVE HEAD FOR ALL LAYERS
    PRINT HEAD FOR ALL LAYERS
 UBDSV2 SAVING "STREAMFLOW OUT  " ON UNIT  50 AT TIME STEP  1, STRESS PERIOD   6



 STREAM LISTING     PERIOD      6   STEP        1

 LAYER ROW COL. STREAM  RCH.  FLOW INTO     FLOW TO   FLOW OUT OF   OVRLND.     DIRECT     STREAM       STREAM     STREAM     STREAM   STREAMBED  STREAMBED
                SEG.NO.  NO.  STRM. RCH.    AQUIFER    STRM. RCH.    RUNOFF     PRECIP       ET          HEAD       DEPTH      WIDTH   CONDCTNC.   GRADIENT

   1   13    1     1     1    1.0000E+05 -2.4487E+03   1.0245E+05  0.000E+00  0.000E+00  0.000E+00  4.84071E+01  1.457E-01  2.000E+01  2.000E+04 -1.224E-01
   1   13    2     1     2    1.0245E+05 -3.5027E+03   1.0595E+05  0.000E+00  0.000E+00  0.000E+00  4.79324E+01  1.483E-01  2.000E+01  2.000E+04 -1.751E-01
   1   14    3     1     3    1.0595E+05 -6.5560E+02   1.0661E+05  0.000E+00  0.000E+00  0.000E+00  4.74569E+01  1.500E-01  2.000E+01  2.000E+04 -3.278E-02
   1   15    4     1     4    1.0661E+05 -6.2462E+02   1.0723E+05  0.000E+00  0.000E+00  0.000E+00  4.69801E+01  1.506E-01  2.000E+01  2.000E+04 -3.123E-02
   1   16    5     1     5    1.0723E+05 -2.0443E+03   1.0928E+05  0.000E+00  0.000E+00  0.000E+00  4.65040E+01  1.517E-01  2.000E+01  2.000E+04 -1.022E-01
   1   16    6     1     6    1.0928E+05 -1.2653E+03   1.1054E+05  0.000E+00  0.000E+00  0.000E+00  4.60281E+01  1.531E-01  2.000E+01  2.000E+04 -6.326E-02
   1   16    7     1     7    1.1054E+05 -1.2049E+03   1.1175E+05  0.000E+00  0.000E+00  0.000E+00  4.55518E+01  1.541E-01  2.000E+01  2.000E+04 -6.025E-02
   1   16    8     1     8    1.1175E+05 -1.1462E+03   1.1289E+05  0.000E+00  0.000E+00  0.000E+00  4.50755E+01  1.551E-01  2.000E+01  2.000E+04 -5.731E-02
   1   16    9     1     9    1.1289E+05 -1.0577E+03   1.1395E+05  0.000E+00  0.000E+00  0.000E+00  4.45992E+01  1.560E-01  2.000E+01  2.000E+04 -5.289E-02
   1   16   10     1    10    1.1395E+05 -9.2047E+02   1.1487E+05  0.000E+00  0.000E+00  0.000E+00  4.41227E+01  1.568E-01  2.000E+01  2.000E+04 -4.602E-02
   1   16   11     1    11    1.1487E+05 -7.0285E+02   1.1557E+05  0.000E+00  0.000E+00  0.000E+00  4.36461E+01  1.575E-01  2.000E+01  2.000E+04 -3.514E-02
   1   16   12     1    12    1.1557E+05 -5.1837E+02   1.1609E+05  0.000E+00  0.000E+00  0.000E+00  4.31694E+01  1.580E-01  2.000E+01  2.000E+04 -2.592E-02
   1   15   13     1    13    1.1609E+05 -6.5504E+02   1.1675E+05  0.000E+00  0.000E+00  0.000E+00  4.26926E+01  1.585E-01  2.000E+01  2.000E+04 -3.275E-02
   1   14   14     1    14    1.1675E+05 -1.2189E+03   1.1797E+05  0.000E+00  0.000E+00  0.000E+00  4.22160E+01  1.592E-01  2.000E+01  2.000E+04 -6.094E-02
   1   13   15     1    15    1.1797E+05 -1.9454E+03   1.1991E+05  0.000E+00  0.000E+00  0.000E+00  4.17401E+01  1.605E-01  2.000E+01  2.000E+04 -9.727E-02
   1   12   16     1    16    1.1991E+05 -3.2545E+03   1.2317E+05  0.000E+00  0.000E+00  0.000E+00  4.12649E+01  1.626E-01  2.000E+01  2.000E+04 -1.627E-01
   1   12   17     1    17    1.2317E+05 -1.8619E+03   1.2503E+05  0.000E+00  0.000E+00  0.000E+00  4.07897E+01  1.647E-01  2.000E+01  2.000E+04 -9.310E-02
   1   12   18     1    18    1.2503E+05 -1.7485E+03   1.2678E+05  0.000E+00  0.000E+00  0.000E+00  4.03138E+01  1.661E-01  2.000E+01  2.000E+04 -8.743E-02
   1   12   19     1    19    1.2678E+05 -2.5565E+03   1.2933E+05  0.000E+00  0.000E+00  0.000E+00  3.98382E+01  1.678E-01  2.000E+01  2.000E+04 -1.278E-01
   1   13   20     1    20    1.2933E+05 -1.2620E+03   1.3059E+05  0.000E+00  0.000E+00  0.000E+00  3.93625E+01  1.693E-01  2.000E+01  2.000E+04 -6.310E-02
   1   14   21     1    21    1.3059E+05 -4.5301E+02   1.3105E+05  0.000E+00  0.000E+00  0.000E+00  3.88859E+01  1.700E-01  2.000E+01  2.000E+04 -2.265E-02
   1   14   22     1    22    1.3105E+05  5.0032E+03   1.2604E+05  0.000E+00  0.000E+00  0.000E+00  3.84068E+01  1.682E-01  2.000E+01  2.000E+04  2.502E-01
   1    9   30     2     1    5.0000E+04 -3.0971E+02   5.0310E+04  0.000E+00  0.000E+00  0.000E+00  4.02411E+01  1.161E-01  2.000E+01  2.000E+04 -1.549E-02
   1    9   29     2     2    5.0310E+04 -6.7076E+02   5.0980E+04  0.000E+00  0.000E+00  0.000E+00  3.99918E+01  1.168E-01  2.000E+01  2.000E+04 -3.354E-02
   1    9   28     2     3    5.0980E+04 -1.0690E+03   5.2050E+04  0.000E+00  0.000E+00  0.000E+00  3.97430E+01  1.180E-01  2.000E+01  2.000E+04 -5.345E-02
   1    9   27     2     4    5.2050E+04 -2.7075E+03   5.4757E+04  0.000E+00  0.000E+00  0.000E+00  3.94955E+01  1.205E-01  2.000E+01  2.000E+04 -1.354E-01
   1   10   26     2     5    5.4757E+04 -1.5985E+03   5.6355E+04  0.000E+00  0.000E+00  0.000E+00  3.92484E+01  1.234E-01  2.000E+01  2.000E+04 -7.992E-02
   1   11   25     2     6    5.6355E+04 -1.4853E+03   5.7841E+04  0.000E+00  0.000E+00  0.000E+00  3.90005E+01  1.255E-01  2.000E+01  2.000E+04 -7.427E-02
   1   12   24     2     7    5.7841E+04 -1.8035E+03   5.9644E+04  0.000E+00  0.000E+00  0.000E+00  3.87526E+01  1.276E-01  2.000E+01  2.000E+04 -9.017E-02
   1   13   23     2     8    5.9644E+04 -3.7612E+02   6.0020E+04  0.000E+00  0.000E+00  0.000E+00  3.85040E+01  1.290E-01  2.000E+01  2.000E+04 -1.881E-02
   1   14   22     2     9    6.0020E+04  1.9277E+03   5.8093E+04  0.000E+00  0.000E+00  0.000E+00  3.82530E+01  1.280E-01  2.000E+01  2.000E+04  9.638E-02
   1   14   22     3     1    1.8414E+05 -8.5114E+03   1.9265E+05  0.000E+00  0.000E+00  0.000E+00  3.77311E+01  1.755E-01  2.000E+01  2.000E+04 -4.256E-01
   1   15   23     3     2    1.9265E+05 -3.9118E+02   1.9304E+05  0.000E+00  0.000E+00  0.000E+00  3.68447E+01  1.780E-01  2.000E+01  2.000E+04 -1.956E-02
   1   15   24     3     3    1.9304E+05 -2.8723E+02   1.9333E+05  0.000E+00  0.000E+00  0.000E+00  3.59560E+01  1.782E-01  2.000E+01  2.000E+04 -1.436E-02
   1   15   25     3     4    1.9333E+05 -2.7581E+02   1.9360E+05  0.000E+00  0.000E+00  0.000E+00  3.50672E+01  1.783E-01  2.000E+01  2.000E+04 -1.379E-02
   1   15   26     3     5    1.9360E+05 -1.5790E+02   1.9376E+05  0.000E+00  0.000E+00  0.000E+00  3.41785E+01  1.785E-01  2.000E+01  2.000E+04 -7.895E-03
   1   16   27     3     6    1.9376E+05  7.8620E+01   1.9368E+05  0.000E+00  0.000E+00  0.000E+00  3.32896E+01  1.785E-01  2.000E+01  2.000E+04  3.931E-03
   1   17   28     3     7    1.9368E+05  3.2019E+03   1.9048E+05  0.000E+00  0.000E+00  0.000E+00  3.23998E+01  1.776E-01  2.000E+01  2.000E+04  1.601E-01
   1   18   29     3     8    1.9048E+05  3.7870E+03   1.8669E+05  0.000E+00  0.000E+00  0.000E+00  3.15090E+01  1.756E-01  2.000E+01  2.000E+04  1.894E-01
   1   18   30     3     9    1.8669E+05 -8.9820E+01   1.8678E+05  0.000E+00  0.000E+00  0.000E+00  3.06190E+01  1.746E-01  2.000E+01  2.000E+04 -4.491E-03



1
              HEAD IN LAYER   1 AT END OF TIME STEP   1 IN STRESS PERIOD    6
  ---------------------------------------------------------------------------

          1      2      3      4      5      6      7      8      9     10
         11     12     13     14     15     16     17     18     19     20
         21     22     23     24     25     26     27     28     29     30
 .........................................................................
   1  ****** ****** ****** ****** ****** ****** ****** ****** ****** ******
      ****** ****** ****** ****** ****** ****** ****** ****** ****** ******
      ****** ****** ****** ****** ****** ****** ****** ****** ****** ******
   2  ****** ****** ****** ****** ****** ****** ****** ****** ****** ******
      ****** ****** ****** ****** ****** ****** ****** ****** ****** ******
      ****** ****** ****** ****** ****** ****** ****** ****** ****** ******
   3  ****** ****** ****** ****** ****** ****** ****** ****** ****** ******
      ****** ****** ****** ****** ****** ****** ****** ****** ****** ******
      ****** ****** ****** ****** ****** ****** ****** ****** ****** ******
   4  ****** ****** ****** ****** ****** ****** ****** ****** ****** ******
      ****** ****** ****** ****** ****** ****** ****** ****** ****** ******
      ****** ****** ****** ****** ****** ****** ****** ****** ****** ******
   5  ****** ****** ****** ****** ****** ****** ****** ****** ****** ******
      ****** ****** ****** ****** ****** ****** ****** ****** ****** ******
      ****** ****** ****** ****** ****** ****** ****** ****** ****** ******
   6  ****** ****** ****** ****** ****** ****** ****** ****** ****** ******
      ****** ****** ****** ****** ****** ****** ****** ****** ****** ******
      ****** ****** ****** ****** ****** ****** ****** ****** ****** ******
   7  ****** ****** ****** ****** ****** ****** ****** ****** ****** ******
      ****** ****** ****** ****** ****** ****** ****** ****** ****** ******
      ****** ****** ****** ****** ****** ****** ****** ****** ****** ******
   8  ****** ****** ****** ****** ****** ****** ****** ****** ****** ******
      ****** ****** ****** ****** ****** ****** ****** ****** ****** ******
      ****** ****** ****** ****** ****** ****** ****** ****** ****** ******
   9  ****** ****** ****** ****** ****** ****** ****** ****** ****** ******
      ****** ****** ****** ****** ****** ****** ****** ****** ****** ******
      ****** ****** ****** ****** ****** ****** ****** ****** ****** ******
  10  ****** ****** ****** ****** ****** ****** ****** ****** ****** ******
      ****** ****** ****** ****** ****** ****** ****** ****** ****** ******
      ****** ****** ****** ****** ****** ****** ****** ****** ****** ******
  11  ****** ****** ****** ****** ****** ****** ****** ****** ****** ******
      ****** ****** ****** ****** ****** ****** ****** ****** ****** ******
      ****** ****** ****** ****** ****** ****** ****** ****** ****** ******
  12  ****** ****** ****** ****** ****** ****** ****** ****** ****** ******
      ****** ****** ****** ****** ****** ****** ****** ****** ****** ******
      ****** ****** ****** ****** ****** ****** ****** ****** ****** ******
  13  ****** ****** ****** ****** ****** ****** ****** ****** ****** ******
      ****** ****** ****** ****** ****** ****** ****** ****** ****** ******
      ****** ****** ****** ****** ****** ****** ****** ****** ****** ******
  14  ****** ****** ****** ****** ****** ****** ****** ****** ****** ******
      ****** ****** ****** ****** ****** ****** ****** ****** ****** ******
      ****** ****** ****** ****** ****** ****** ****** ****** ****** ******
  15  ****** ****** ****** ****** ****** ****** ****** ****** ****** ******
      ****** ****** ****** ****** ****** ****** ****** ****** ****** ******
      ****** ****** ****** ****** ****** ****** ****** ****** ****** ******
  16  ****** ****** ****** ****** ****** ****** ****** ****** ****** ******
      ****** ****** ****** ****** ****** ****** ****** ****** ****** ******
      ****** ****** ****** ****** ****** ****** ****** ****** ****** ******
  17  ****** ****** ****** ****** ****** ****** ****** ****** ****** ******
      ****** ****** ****** ****** ****** ****** ****** ****** ****** ******
      ****** ****** ****** ****** ****** ****** ****** ****** ****** ******
  18  ****** ****** ****** ****** ****** ****** ****** ****** ****** ******
      ****** ****** ****** ****** ****** ****** ****** ****** ****** ******
      ****** ****** ****** ****** ****** ****** ****** ****** ****** ******
  19  ****** ****** ****** ****** ****** ****** ****** ****** ****** ******
      ****** ****** ****** ****** ****** ****** ****** ****** ****** ******
      ****** ****** ****** ****** ****** ****** ****** ****** ****** ******
  20  ****** ****** ****** ****** ****** ****** ****** ****** ****** ******
      ****** ****** ****** ****** ****** ****** ****** ****** ****** ******
      ****** ****** ****** ****** ****** ****** ****** ****** ****** ******
  21  ****** ****** ****** ****** ****** ****** ****** ****** ****** ******
      ****** ****** ****** ****** ****** ****** ****** ****** ****** ******
      ****** ****** ****** ****** ****** ****** ****** ****** ****** ******
  22  ****** ****** ****** ****** ****** ****** ****** ****** ****** ******
      ****** ****** ****** ****** ****** ****** ****** ****** ****** ******
      ****** ****** ****** ****** ****** ****** ****** ****** ****** ******
  23  ****** ****** ****** ****** ****** ****** ****** ****** ****** ******
      ****** ****** ****** ****** ****** ****** ****** ****** ****** ******
      ****** ****** ****** ****** ****** ****** ****** ****** ****** ******
  24  ****** ****** ****** ****** ****** ****** ****** ****** ****** ******
      ****** ****** ****** ****** ****** ****** ****** ****** ****** ******
      ****** ****** ****** ****** ****** ****** ****** ****** ****** ******
  25  ****** ****** ****** ****** ****** ****** ****** ****** ****** ******
      ****** ****** ****** ****** ****** ****** ****** ****** ****** ******
      ****** ****** ****** ****** ****** ****** ****** ****** ****** ******

 HEAD WILL BE SAVED ON UNIT   51 AT END OF TIME STEP    1, STRESS PERIOD    6
1
  VOLUMETRIC BUDGET FOR ENTIRE MODEL AT END OF TIME STEP    1, STRESS PERIOD   6
  ------------------------------------------------------------------------------

     CUMULATIVE VOLUMES      L**3       RATES FOR THIS TIME STEP      L**3/T
     ------------------                 ------------------------

           IN:                                      IN:
           ---                                      ---
             STORAGE =    31218715.7916               STORAGE =           0.0000
       CONSTANT HEAD =    13251731.5960         CONSTANT HEAD =       29515.7771
               WELLS =           0.0000                 WELLS =           0.0000
            RECHARGE =    15097200.0000              RECHARGE =       55200.0000
      STREAM LEAKAGE =     6437710.0566        STREAM LEAKAGE =       13998.3533

            TOTAL IN =    66005357.4442              TOTAL IN =       98714.1304

          OUT:                                     OUT:
          ----                                     ----
             STORAGE =      814963.3923               STORAGE =        8949.8685
       CONSTANT HEAD =           0.0000         CONSTANT HEAD =           0.0000
               WELLS =    21362705.0694                 WELLS =       38983.0384
            RECHARGE =           0.0000              RECHARGE =           0.0000
      STREAM LEAKAGE =    43827690.9731        STREAM LEAKAGE =       50781.2207

           TOTAL OUT =    66005359.4347             TOTAL OUT =       98714.1276

            IN - OUT =          -1.9905              IN - OUT =       2.8353E-03

 PERCENT DISCREPANCY =          -0.00     PERCENT DISCREPANCY =           0.00






         TIME SUMMARY AT END OF TIME STEP    1 IN STRESS PERIOD    6
                    SECONDS     MINUTES      HOURS       DAYS        YEARS
                    -----------------------------------------------------------
   TIME STEP LENGTH 7.86240E+06 1.31040E+05  2184.0      91.000     0.24914    
 STRESS PERIOD TIME 7.86240E+06 1.31040E+05  2184.0      91.000     0.24914    
         TOTAL TIME 4.73472E+07 7.89120E+05  13152.      548.00      1.5003    
1
1
                            STRESS PERIOD NO.    7, LENGTH =   91.00000    
                            -----------------------------------------------

                              NUMBER OF TIME STEPS =     1

                               MULTIPLIER FOR DELT =     1.500

                            INITIAL TIME STEP SIZE =   91.00000    

 WELL NO.  LAYER   ROW   COL   STRESS RATE         
 --------------------------------------------------
      1      1     18     15      -8387.    
      2      1     17     18      -8258.    
      3      1     14     29      -8048.    
      4      1     19     28     -0.1429E+05

      4 WELLS

                 RECHARGE =   0.00000    

 REUSING STREAM SEGMENT DATA FROM LAST STRESS PERIOD
 
 SOLVING FOR HEAD 


     7 CALLS TO PCG ROUTINE FOR TIME STEP   1 IN STRESS PERIOD    7
    26 TOTAL ITERATIONS

 OUTPUT CONTROL FOR STRESS PERIOD    7   TIME STEP    1
    SAVE BUDGET
    SAVE HEAD FOR ALL LAYERS
    PRINT HEAD FOR ALL LAYERS
 UBDSV2 SAVING "STREAMFLOW OUT  " ON UNIT  50 AT TIME STEP  1, STRESS PERIOD   7



 STREAM LISTING     PERIOD      7   STEP        1

 LAYER ROW COL. STREAM  RCH.  FLOW INTO     FLOW TO   FLOW OUT OF   OVRLND.     DIRECT     STREAM       STREAM     STREAM     STREAM   STREAMBED  STREAMBED
                SEG.NO.  NO.  STRM. RCH.    AQUIFER    STRM. RCH.    RUNOFF     PRECIP       ET          HEAD       DEPTH      WIDTH   CONDCTNC.   GRADIENT

   1   13    1     1     1    1.0000E+05 -1.7902E+03   1.0179E+05  0.000E+00  0.000E+00  0.000E+00  4.84068E+01  1.454E-01  2.000E+01  2.000E+04 -8.951E-02
   1   13    2     1     2    1.0179E+05 -2.7665E+03   1.0456E+05  0.000E+00  0.000E+00  0.000E+00  4.79315E+01  1.474E-01  2.000E+01  2.000E+04 -1.383E-01
   1   14    3     1     3    1.0456E+05 -4.0460E+02   1.0496E+05  0.000E+00  0.000E+00  0.000E+00  4.74556E+01  1.487E-01  2.000E+01  2.000E+04 -2.023E-02
   1   15    4     1     4    1.0496E+05 -3.6237E+02   1.0532E+05  0.000E+00  0.000E+00  0.000E+00  4.69786E+01  1.491E-01  2.000E+01  2.000E+04 -1.812E-02
   1   16    5     1     5    1.0532E+05 -1.2870E+03   1.0661E+05  0.000E+00  0.000E+00  0.000E+00  4.65020E+01  1.498E-01  2.000E+01  2.000E+04 -6.435E-02
   1   16    6     1     6    1.0661E+05 -8.0915E+02   1.0742E+05  0.000E+00  0.000E+00  0.000E+00  4.60257E+01  1.507E-01  2.000E+01  2.000E+04 -4.046E-02
   1   16    7     1     7    1.0742E+05 -7.6725E+02   1.0819E+05  0.000E+00  0.000E+00  0.000E+00  4.55490E+01  1.513E-01  2.000E+01  2.000E+04 -3.836E-02
   1   16    8     1     8    1.0819E+05 -7.1426E+02   1.0890E+05  0.000E+00  0.000E+00  0.000E+00  4.50724E+01  1.519E-01  2.000E+01  2.000E+04 -3.571E-02
   1   16    9     1     9    1.0890E+05 -6.2847E+02   1.0953E+05  0.000E+00  0.000E+00  0.000E+00  4.45957E+01  1.525E-01  2.000E+01  2.000E+04 -3.142E-02
   1   16   10     1    10    1.0953E+05 -4.9294E+02   1.1002E+05  0.000E+00  0.000E+00  0.000E+00  4.41189E+01  1.530E-01  2.000E+01  2.000E+04 -2.465E-02
   1   16   11     1    11    1.1002E+05 -2.7297E+02   1.1030E+05  0.000E+00  0.000E+00  0.000E+00  4.36419E+01  1.533E-01  2.000E+01  2.000E+04 -1.365E-02
   1   16   12     1    12    1.1030E+05  2.0510E+02   1.1009E+05  0.000E+00  0.000E+00  0.000E+00  4.31647E+01  1.533E-01  2.000E+01  2.000E+04  1.025E-02
   1   15   13     1    13    1.1009E+05  1.1555E+02   1.0998E+05  0.000E+00  0.000E+00  0.000E+00  4.26873E+01  1.532E-01  2.000E+01  2.000E+04  5.778E-03
   1   14   14     1    14    1.0998E+05 -4.2372E+02   1.1040E+05  0.000E+00  0.000E+00  0.000E+00  4.22101E+01  1.533E-01  2.000E+01  2.000E+04 -2.119E-02
   1   13   15     1    15    1.1040E+05 -1.1515E+03   1.1155E+05  0.000E+00  0.000E+00  0.000E+00  4.17335E+01  1.540E-01  2.000E+01  2.000E+04 -5.758E-02
   1   12   16     1    16    1.1155E+05 -2.4729E+03   1.1402E+05  0.000E+00  0.000E+00  0.000E+00  4.12578E+01  1.555E-01  2.000E+01  2.000E+04 -1.236E-01
   1   12   17     1    17    1.1402E+05 -1.2899E+03   1.1531E+05  0.000E+00  0.000E+00  0.000E+00  4.07820E+01  1.570E-01  2.000E+01  2.000E+04 -6.449E-02
   1   12   18     1    18    1.1531E+05 -1.1895E+03   1.1650E+05  0.000E+00  0.000E+00  0.000E+00  4.03058E+01  1.580E-01  2.000E+01  2.000E+04 -5.948E-02
   1   12   19     1    19    1.1650E+05 -1.8749E+03   1.1838E+05  0.000E+00  0.000E+00  0.000E+00  3.98298E+01  1.593E-01  2.000E+01  2.000E+04 -9.375E-02
   1   13   20     1    20    1.1838E+05 -5.9032E+02   1.1897E+05  0.000E+00  0.000E+00  0.000E+00  3.93535E+01  1.603E-01  2.000E+01  2.000E+04 -2.952E-02
   1   14   21     1    21    1.1897E+05  2.1765E+02   1.1875E+05  0.000E+00  0.000E+00  0.000E+00  3.88764E+01  1.605E-01  2.000E+01  2.000E+04  1.088E-02
   1   14   22     1    22    1.1875E+05  5.1618E+03   1.1359E+05  0.000E+00  0.000E+00  0.000E+00  3.83969E+01  1.583E-01  2.000E+01  2.000E+04  2.581E-01
   1    9   30     2     1    5.0000E+04  2.0170E+02   4.9798E+04  0.000E+00  0.000E+00  0.000E+00  4.02407E+01  1.157E-01  2.000E+01  2.000E+04  1.008E-02
   1    9   29     2     2    4.9798E+04 -1.6129E+02   4.9960E+04  0.000E+00  0.000E+00  0.000E+00  3.99907E+01  1.157E-01  2.000E+01  2.000E+04 -8.064E-03
   1    9   28     2     3    4.9960E+04 -5.5863E+02   5.0518E+04  0.000E+00  0.000E+00  0.000E+00  3.97412E+01  1.162E-01  2.000E+01  2.000E+04 -2.793E-02
   1    9   27     2     4    5.0518E+04 -2.0159E+03   5.2534E+04  0.000E+00  0.000E+00  0.000E+00  3.94930E+01  1.180E-01  2.000E+01  2.000E+04 -1.008E-01
   1   10   26     2     5    5.2534E+04 -9.0377E+02   5.3438E+04  0.000E+00  0.000E+00  0.000E+00  3.92450E+01  1.200E-01  2.000E+01  2.000E+04 -4.519E-02
   1   11   25     2     6    5.3438E+04 -8.1889E+02   5.4257E+04  0.000E+00  0.000E+00  0.000E+00  3.89961E+01  1.211E-01  2.000E+01  2.000E+04 -4.094E-02
   1   12   24     2     7    5.4257E+04 -1.1961E+03   5.5453E+04  0.000E+00  0.000E+00  0.000E+00  3.87475E+01  1.225E-01  2.000E+01  2.000E+04 -5.980E-02
   1   13   23     2     8    5.5453E+04 -1.8483E+02   5.5638E+04  0.000E+00  0.000E+00  0.000E+00  3.84984E+01  1.234E-01  2.000E+01  2.000E+04 -9.242E-03
   1   14   22     2     9    5.5638E+04  2.1656E+03   5.3472E+04  0.000E+00  0.000E+00  0.000E+00  3.82471E+01  1.221E-01  2.000E+01  2.000E+04  1.083E-01
   1   14   22     3     1    1.6706E+05 -8.3501E+03   1.7541E+05  0.000E+00  0.000E+00  0.000E+00  3.77213E+01  1.658E-01  2.000E+01  2.000E+04 -4.175E-01
   1   15   23     3     2    1.7541E+05 -1.8205E+02   1.7559E+05  0.000E+00  0.000E+00  0.000E+00  3.68349E+01  1.682E-01  2.000E+01  2.000E+04 -9.102E-03
   1   15   24     3     3    1.7559E+05 -1.1198E+02   1.7570E+05  0.000E+00  0.000E+00  0.000E+00  3.59461E+01  1.683E-01  2.000E+01  2.000E+04 -5.599E-03
   1   15   25     3     4    1.7570E+05 -9.7636E+01   1.7580E+05  0.000E+00  0.000E+00  0.000E+00  3.50573E+01  1.684E-01  2.000E+01  2.000E+04 -4.882E-03
   1   15   26     3     5    1.7580E+05  4.4309E+01   1.7576E+05  0.000E+00  0.000E+00  0.000E+00  3.41684E+01  1.684E-01  2.000E+01  2.000E+04  2.215E-03
   1   16   27     3     6    1.7576E+05  3.1278E+02   1.7545E+05  0.000E+00  0.000E+00  0.000E+00  3.32794E+01  1.683E-01  2.000E+01  2.000E+04  1.564E-02
   1   17   28     3     7    1.7545E+05  3.8498E+03   1.7160E+05  0.000E+00  0.000E+00  0.000E+00  3.23893E+01  1.671E-01  2.000E+01  2.000E+04  1.925E-01
   1   18   29     3     8    1.7160E+05  4.4867E+03   1.6711E+05  0.000E+00  0.000E+00  0.000E+00  3.14980E+01  1.647E-01  2.000E+01  2.000E+04  2.243E-01
   1   18   30     3     9    1.6711E+05  4.4686E+02   1.6666E+05  0.000E+00  0.000E+00  0.000E+00  3.06077E+01  1.632E-01  2.000E+01  2.000E+04  2.234E-02



1
              HEAD IN LAYER   1 AT END OF TIME STEP   1 IN STRESS PERIOD    7
  ---------------------------------------------------------------------------

          1      2      3      4      5      6      7      8      9     10
         11     12     13     14     15     16     17     18     19     20
         21     22     23     24     25     26     27     28     29     30
 .........................................................................
   1  ****** ****** ****** ****** ****** ****** ****** ****** ****** ******
      ****** ****** ****** ****** ****** ****** ****** ****** ****** ******
      ****** ****** ****** ****** ****** ****** ****** ****** ****** ******
   2  ****** ****** ****** ****** ****** ****** ****** ****** ****** ******
      ****** ****** ****** ****** ****** ****** ****** ****** ****** ******
      ****** ****** ****** ****** ****** ****** ****** ****** ****** ******
   3  ****** ****** ****** ****** ****** ****** ****** ****** ****** ******
      ****** ****** ****** ****** ****** ****** ****** ****** ****** ******
      ****** ****** ****** ****** ****** ****** ****** ****** ****** ******
   4  ****** ****** ****** ****** ****** ****** ****** ****** ****** ******
      ****** ****** ****** ****** ****** ****** ****** ****** ****** ******
      ****** ****** ****** ****** ****** ****** ****** ****** ****** ******
   5  ****** ****** ****** ****** ****** ****** ****** ****** ****** ******
      ****** ****** ****** ****** ****** ****** ****** ****** ****** ******
      ****** ****** ****** ****** ****** ****** ****** ****** ****** ******
   6  ****** ****** ****** ****** ****** ****** ****** ****** ****** ******
      ****** ****** ****** ****** ****** ****** ****** ****** ****** ******
      ****** ****** ****** ****** ****** ****** ****** ****** ****** ******
   7  ****** ****** ****** ****** ****** ****** ****** ****** ****** ******
      ****** ****** ****** ****** ****** ****** ****** ****** ****** ******
      ****** ****** ****** ****** ****** ****** ****** ****** ****** ******
   8  ****** ****** ****** ****** ****** ****** ****** ****** ****** ******
      ****** ****** ****** ****** ****** ****** ****** ****** ****** ******
      ****** ****** ****** ****** ****** ****** ****** ****** ****** ******
   9  ****** ****** ****** ****** ****** ****** ****** ****** ****** ******
      ****** ****** ****** ****** ****** ****** ****** ****** ****** ******
      ****** ****** ****** ****** ****** ****** ****** ****** ****** ******
  10  ****** ****** ****** ****** ****** ****** ****** ****** ****** ******
      ****** ****** ****** ****** ****** ****** ****** ****** ****** ******
      ****** ****** ****** ****** ****** ****** ****** ****** ****** ******
  11  ****** ****** ****** ****** ****** ****** ****** ****** ****** ******
      ****** ****** ****** ****** ****** ****** ****** ****** ****** ******
      ****** ****** ****** ****** ****** ****** ****** ****** ****** ******
  12  ****** ****** ****** ****** ****** ****** ****** ****** ****** ******
      ****** ****** ****** ****** ****** ****** ****** ****** ****** ******
      ****** ****** ****** ****** ****** ****** ****** ****** ****** ******
  13  ****** ****** ****** ****** ****** ****** ****** ****** ****** ******
      ****** ****** ****** ****** ****** ****** ****** ****** ****** ******
      ****** ****** ****** ****** ****** ****** ****** ****** ****** ******
  14  ****** ****** ****** ****** ****** ****** ****** ****** ****** ******
      ****** ****** ****** ****** ****** ****** ****** ****** ****** ******
      ****** ****** ****** ****** ****** ****** ****** ****** ****** ******
  15  ****** ****** ****** ****** ****** ****** ****** ****** ****** ******
      ****** ****** ****** ****** ****** ****** ****** ****** ****** ******
      ****** ****** ****** ****** ****** ****** ****** ****** ****** ******
  16  ****** ****** ****** ****** ****** ****** ****** ****** ****** ******
      ****** ****** ****** ****** ****** ****** ****** ****** ****** ******
      ****** ****** ****** ****** ****** ****** ****** ****** ****** ******
  17  ****** ****** ****** ****** ****** ****** ****** ****** ****** ******
      ****** ****** ****** ****** ****** ****** ****** ****** ****** ******
      ****** ****** ****** ****** ****** ****** ****** ****** ****** ******
  18  ****** ****** ****** ****** ****** ****** ****** ****** ****** ******
      ****** ****** ****** ****** ****** ****** ****** ****** ****** ******
      ****** ****** ****** ****** ****** ****** ****** ****** ****** ******
  19  ****** ****** ****** ****** ****** ****** ****** ****** ****** ******
      ****** ****** ****** ****** ****** ****** ****** ****** ****** ******
      ****** ****** ****** ****** ****** ****** ****** ****** ****** ******
  20  ****** ****** ****** ****** ****** ****** ****** ****** ****** ******
      ****** ****** ****** ****** ****** ****** ****** ****** ****** ******
      ****** ****** ****** ****** ****** ****** ****** ****** ****** ******
  21  ****** ****** ****** ****** ****** ****** ****** ****** ****** ******
      ****** ****** ****** ****** ****** ****** ****** ****** ****** ******
      ****** ****** ****** ****** ****** ****** ****** ****** ****** ******
  22  ****** ****** ****** ****** ****** ****** ****** ****** ****** ******
      ****** ****** ****** ****** ****** ****** ****** ****** ****** ******
      ****** ****** ****** ****** ****** ****** ****** ****** ****** ******
  23  ****** ****** ****** ****** ****** ****** ****** ****** ****** ******
      ****** ****** ****** ****** ****** ****** ****** ****** ****** ******
      ****** ****** ****** ****** ****** ****** ****** ****** ****** ******
  24  ****** ****** ****** ****** ****** ****** ****** ****** ****** ******
      ****** ****** ****** ****** ****** ****** ****** ****** ****** ******
      ****** ****** ****** ****** ****** ****** ****** ****** ****** ******
  25  ****** ****** ****** ****** ****** ****** ****** ****** ****** ******
      ****** ****** ****** ****** ****** ****** ****** ****** ****** ******
      ****** ****** ****** ****** ****** ****** ****** ****** ****** ******

 HEAD WILL BE SAVED ON UNIT   51 AT END OF TIME STEP    1, STRESS PERIOD    7
1
  VOLUMETRIC BUDGET FOR ENTIRE MODEL AT END OF TIME STEP    1, STRESS PERIOD   7
  ------------------------------------------------------------------------------

     CUMULATIVE VOLUMES      L**3       RATES FOR THIS TIME STEP      L**3/T
     ------------------                 ------------------------

           IN:                                      IN:
           ---                                      ---
             STORAGE =    33239813.3395               STORAGE =       22209.8632
       CONSTANT HEAD =    16294311.2893         CONSTANT HEAD =       33434.9417
               WELLS =           0.0000                 WELLS =           0.0000
            RECHARGE =    15097200.0000              RECHARGE =           0.0000
      STREAM LEAKAGE =     8003620.9912        STREAM LEAKAGE =       17207.8125

            TOTAL IN =    72634945.6200              TOTAL IN =       72852.6173

          OUT:                                     OUT:
          ----                                     ----
             STORAGE =      814963.3923               STORAGE =           0.0000
       CONSTANT HEAD =           0.0000         CONSTANT HEAD =           0.0000
               WELLS =    24910161.5681                 WELLS =       38983.0384
            RECHARGE =           0.0000              RECHARGE =           0.0000
      STREAM LEAKAGE =    46909823.1403        STREAM LEAKAGE =       33869.5843

           TOTAL OUT =    72634948.1007             TOTAL OUT =       72852.6227

            IN - OUT =          -2.4807              IN - OUT =      -5.3867E-03

 PERCENT DISCREPANCY =          -0.00     PERCENT DISCREPANCY =          -0.00






         TIME SUMMARY AT END OF TIME STEP    1 IN STRESS PERIOD    7
                    SECONDS     MINUTES      HOURS       DAYS        YEARS
                    -----------------------------------------------------------
   TIME STEP LENGTH 7.86240E+06 1.31040E+05  2184.0      91.000     0.24914    
 STRESS PERIOD TIME 7.86240E+06 1.31040E+05  2184.0      91.000     0.24914    
         TOTAL TIME 5.52096E+07 9.20160E+05  15336.      639.00      1.7495    
1
1
                            STRESS PERIOD NO.    8, LENGTH =   91.00000    
                            -----------------------------------------------

                              NUMBER OF TIME STEPS =     1

                               MULTIPLIER FOR DELT =     1.500

                            INITIAL TIME STEP SIZE =   91.00000    

 WELL NO.  LAYER   ROW   COL   STRESS RATE         
 --------------------------------------------------
      1      1     18     15      -8387.    
      2      1     17     18      -8258.    
      3      1     14     29      -8048.    
      4      1     19     28     -0.1429E+05

      4 WELLS

                 RECHARGE =  1.000000E-03

 REUSING STREAM SEGMENT DATA FROM LAST STRESS PERIOD
 
 SOLVING FOR HEAD 


     6 CALLS TO PCG ROUTINE FOR TIME STEP   1 IN STRESS PERIOD    8
    22 TOTAL ITERATIONS

 OUTPUT CONTROL FOR STRESS PERIOD    8   TIME STEP    1
    SAVE BUDGET
    SAVE HEAD FOR ALL LAYERS
    PRINT HEAD FOR ALL LAYERS
 UBDSV2 SAVING "STREAMFLOW OUT  " ON UNIT  50 AT TIME STEP  1, STRESS PERIOD   8



 STREAM LISTING     PERIOD      8   STEP        1

 LAYER ROW COL. STREAM  RCH.  FLOW INTO     FLOW TO   FLOW OUT OF   OVRLND.     DIRECT     STREAM       STREAM     STREAM     STREAM   STREAMBED  STREAMBED
                SEG.NO.  NO.  STRM. RCH.    AQUIFER    STRM. RCH.    RUNOFF     PRECIP       ET          HEAD       DEPTH      WIDTH   CONDCTNC.   GRADIENT

   1   13    1     1     1    1.0000E+05 -1.8698E+03   1.0187E+05  0.000E+00  0.000E+00  0.000E+00  4.84068E+01  1.455E-01  2.000E+01  2.000E+04 -9.349E-02
   1   13    2     1     2    1.0187E+05 -2.8467E+03   1.0472E+05  0.000E+00  0.000E+00  0.000E+00  4.79316E+01  1.475E-01  2.000E+01  2.000E+04 -1.423E-01
   1   14    3     1     3    1.0472E+05 -4.6949E+02   1.0519E+05  0.000E+00  0.000E+00  0.000E+00  4.74557E+01  1.489E-01  2.000E+01  2.000E+04 -2.347E-02
   1   15    4     1     4    1.0519E+05 -4.3154E+02   1.0562E+05  0.000E+00  0.000E+00  0.000E+00  4.69788E+01  1.493E-01  2.000E+01  2.000E+04 -2.158E-02
   1   16    5     1     5    1.0562E+05 -1.4588E+03   1.0708E+05  0.000E+00  0.000E+00  0.000E+00  4.65024E+01  1.501E-01  2.000E+01  2.000E+04 -7.294E-02
   1   16    6     1     6    1.0708E+05 -9.1535E+02   1.0799E+05  0.000E+00  0.000E+00  0.000E+00  4.60261E+01  1.511E-01  2.000E+01  2.000E+04 -4.577E-02
   1   16    7     1     7    1.0799E+05 -8.6853E+02   1.0886E+05  0.000E+00  0.000E+00  0.000E+00  4.55496E+01  1.518E-01  2.000E+01  2.000E+04 -4.343E-02
   1   16    8     1     8    1.0886E+05 -8.1459E+02   1.0967E+05  0.000E+00  0.000E+00  0.000E+00  4.50730E+01  1.526E-01  2.000E+01  2.000E+04 -4.073E-02
   1   16    9     1     9    1.0967E+05 -7.2970E+02   1.1040E+05  0.000E+00  0.000E+00  0.000E+00  4.45964E+01  1.532E-01  2.000E+01  2.000E+04 -3.649E-02
   1   16   10     1    10    1.1040E+05 -5.9627E+02   1.1100E+05  0.000E+00  0.000E+00  0.000E+00  4.41197E+01  1.538E-01  2.000E+01  2.000E+04 -2.981E-02
   1   16   11     1    11    1.1100E+05 -3.7874E+02   1.1138E+05  0.000E+00  0.000E+00  0.000E+00  4.36428E+01  1.542E-01  2.000E+01  2.000E+04 -1.894E-02
   1   16   12     1    12    1.1138E+05  4.7716E+01   1.1133E+05  0.000E+00  0.000E+00  0.000E+00  4.31657E+01  1.543E-01  2.000E+01  2.000E+04  2.386E-03
   1   15   13     1    13    1.1133E+05 -5.1464E+01   1.1138E+05  0.000E+00  0.000E+00  0.000E+00  4.26884E+01  1.543E-01  2.000E+01  2.000E+04 -2.573E-03
   1   14   14     1    14    1.1138E+05 -5.8547E+02   1.1197E+05  0.000E+00  0.000E+00  0.000E+00  4.22114E+01  1.546E-01  2.000E+01  2.000E+04 -2.927E-02
   1   13   15     1    15    1.1197E+05 -1.3021E+03   1.1327E+05  0.000E+00  0.000E+00  0.000E+00  4.17349E+01  1.553E-01  2.000E+01  2.000E+04 -6.510E-02
   1   12   16     1    16    1.1327E+05 -2.5885E+03   1.1586E+05  0.000E+00  0.000E+00  0.000E+00  4.12592E+01  1.569E-01  2.000E+01  2.000E+04 -1.294E-01
   1   12   17     1    17    1.1586E+05 -1.4026E+03   1.1726E+05  0.000E+00  0.000E+00  0.000E+00  4.07836E+01  1.586E-01  2.000E+01  2.000E+04 -7.013E-02
   1   12   18     1    18    1.1726E+05 -1.3085E+03   1.1857E+05  0.000E+00  0.000E+00  0.000E+00  4.03074E+01  1.597E-01  2.000E+01  2.000E+04 -6.543E-02
   1   12   19     1    19    1.1857E+05 -2.0256E+03   1.2060E+05  0.000E+00  0.000E+00  0.000E+00  3.98315E+01  1.610E-01  2.000E+01  2.000E+04 -1.013E-01
   1   13   20     1    20    1.2060E+05 -7.6660E+02   1.2136E+05  0.000E+00  0.000E+00  0.000E+00  3.93553E+01  1.622E-01  2.000E+01  2.000E+04 -3.833E-02
   1   14   21     1    21    1.2136E+05  6.4770E+01   1.2130E+05  0.000E+00  0.000E+00  0.000E+00  3.88784E+01  1.624E-01  2.000E+01  2.000E+04  3.238E-03
   1   14   22     1    22    1.2130E+05  5.1153E+03   1.1618E+05  0.000E+00  0.000E+00  0.000E+00  3.83990E+01  1.604E-01  2.000E+01  2.000E+04  2.558E-01
   1    9   30     2     1    5.0000E+04  3.7612E+01   4.9962E+04  0.000E+00  0.000E+00  0.000E+00  4.02408E+01  1.158E-01  2.000E+01  2.000E+04  1.881E-03
   1    9   29     2     2    4.9962E+04 -3.2264E+02   5.0285E+04  0.000E+00  0.000E+00  0.000E+00  3.99910E+01  1.160E-01  2.000E+01  2.000E+04 -1.613E-02
   1    9   28     2     3    5.0285E+04 -7.1458E+02   5.1000E+04  0.000E+00  0.000E+00  0.000E+00  3.97418E+01  1.168E-01  2.000E+01  2.000E+04 -3.573E-02
   1    9   27     2     4    5.1000E+04 -2.1961E+03   5.3196E+04  0.000E+00  0.000E+00  0.000E+00  3.94938E+01  1.188E-01  2.000E+01  2.000E+04 -1.098E-01
   1   10   26     2     5    5.3196E+04 -1.1107E+03   5.4306E+04  0.000E+00  0.000E+00  0.000E+00  3.92460E+01  1.210E-01  2.000E+01  2.000E+04 -5.553E-02
   1   11   25     2     6    5.4306E+04 -1.0241E+03   5.5331E+04  0.000E+00  0.000E+00  0.000E+00  3.89974E+01  1.224E-01  2.000E+01  2.000E+04 -5.121E-02
   1   12   24     2     7    5.5331E+04 -1.3824E+03   5.6713E+04  0.000E+00  0.000E+00  0.000E+00  3.87490E+01  1.240E-01  2.000E+01  2.000E+04 -6.912E-02
   1   13   23     2     8    5.6713E+04 -2.5932E+02   5.6972E+04  0.000E+00  0.000E+00  0.000E+00  3.85001E+01  1.251E-01  2.000E+01  2.000E+04 -1.297E-02
   1   14   22     2     9    5.6972E+04  2.1136E+03   5.4859E+04  0.000E+00  0.000E+00  0.000E+00  3.82489E+01  1.239E-01  2.000E+01  2.000E+04  1.057E-01
   1   14   22     3     1    1.7104E+05 -8.3921E+03   1.7943E+05  0.000E+00  0.000E+00  0.000E+00  3.77236E+01  1.681E-01  2.000E+01  2.000E+04 -4.196E-01
   1   15   23     3     2    1.7943E+05 -2.4462E+02   1.7968E+05  0.000E+00  0.000E+00  0.000E+00  3.68372E+01  1.705E-01  2.000E+01  2.000E+04 -1.223E-02
   1   15   24     3     3    1.7968E+05 -1.7151E+02   1.7985E+05  0.000E+00  0.000E+00  0.000E+00  3.59484E+01  1.707E-01  2.000E+01  2.000E+04 -8.576E-03
   1   15   25     3     4    1.7985E+05 -1.5898E+02   1.8001E+05  0.000E+00  0.000E+00  0.000E+00  3.50596E+01  1.708E-01  2.000E+01  2.000E+04 -7.949E-03
   1   15   26     3     5    1.8001E+05 -2.9749E+01   1.8004E+05  0.000E+00  0.000E+00  0.000E+00  3.41708E+01  1.708E-01  2.000E+01  2.000E+04 -1.487E-03
   1   16   27     3     6    1.8004E+05  2.3204E+02   1.7981E+05  0.000E+00  0.000E+00  0.000E+00  3.32819E+01  1.707E-01  2.000E+01  2.000E+04  1.160E-02
   1   17   28     3     7    1.7981E+05  3.6499E+03   1.7616E+05  0.000E+00  0.000E+00  0.000E+00  3.23919E+01  1.696E-01  2.000E+01  2.000E+04  1.825E-01
   1   18   29     3     8    1.7616E+05  4.3294E+03   1.7183E+05  0.000E+00  0.000E+00  0.000E+00  3.15007E+01  1.673E-01  2.000E+01  2.000E+04  2.165E-01
   1   18   30     3     9    1.7183E+05  3.0516E+02   1.7152E+05  0.000E+00  0.000E+00  0.000E+00  3.06105E+01  1.660E-01  2.000E+01  2.000E+04  1.526E-02



1
              HEAD IN LAYER   1 AT END OF TIME STEP   1 IN STRESS PERIOD    8
  ---------------------------------------------------------------------------

          1      2      3      4      5      6      7      8      9     10
         11     12     13     14     15     16     17     18     19     20
         21     22     23     24     25     26     27     28     29     30
 .........................................................................
   1  ****** ****** ****** ****** ****** ****** ****** ****** ****** ******
      ****** ****** ****** ****** ****** ****** ****** ****** ****** ******
      ****** ****** ****** ****** ****** ****** ****** ****** ****** ******
   2  ****** ****** ****** ****** ****** ****** ****** ****** ****** ******
      ****** ****** ****** ****** ****** ****** ****** ****** ****** ******
      ****** ****** ****** ****** ****** ****** ****** ****** ****** ******
   3  ****** ****** ****** ****** ****** ****** ****** ****** ****** ******
      ****** ****** ****** ****** ****** ****** ****** ****** ****** ******
      ****** ****** ****** ****** ****** ****** ****** ****** ****** ******
   4  ****** ****** ****** ****** ****** ****** ****** ****** ****** ******
      ****** ****** ****** ****** ****** ****** ****** ****** ****** ******
      ****** ****** ****** ****** ****** ****** ****** ****** ****** ******
   5  ****** ****** ****** ****** ****** ****** ****** ****** ****** ******
      ****** ****** ****** ****** ****** ****** ****** ****** ****** ******
      ****** ****** ****** ****** ****** ****** ****** ****** ****** ******
   6  ****** ****** ****** ****** ****** ****** ****** ****** ****** ******
      ****** ****** ****** ****** ****** ****** ****** ****** ****** ******
      ****** ****** ****** ****** ****** ****** ****** ****** ****** ******
   7  ****** ****** ****** ****** ****** ****** ****** ****** ****** ******
      ****** ****** ****** ****** ****** ****** ****** ****** ****** ******
      ****** ****** ****** ****** ****** ****** ****** ****** ****** ******
   8  ****** ****** ****** ****** ****** ****** ****** ****** ****** ******
      ****** ****** ****** ****** ****** ****** ****** ****** ****** ******
      ****** ****** ****** ****** ****** ****** ****** ****** ****** ******
   9  ****** ****** ****** ****** ****** ****** ****** ****** ****** ******
      ****** ****** ****** ****** ****** ****** ****** ****** ****** ******
      ****** ****** ****** ****** ****** ****** ****** ****** ****** ******
  10  ****** ****** ****** ****** ****** ****** ****** ****** ****** ******
      ****** ****** ****** ****** ****** ****** ****** ****** ****** ******
      ****** ****** ****** ****** ****** ****** ****** ****** ****** ******
  11  ****** ****** ****** ****** ****** ****** ****** ****** ****** ******
      ****** ****** ****** ****** ****** ****** ****** ****** ****** ******
      ****** ****** ****** ****** ****** ****** ****** ****** ****** ******
  12  ****** ****** ****** ****** ****** ****** ****** ****** ****** ******
      ****** ****** ****** ****** ****** ****** ****** ****** ****** ******
      ****** ****** ****** ****** ****** ****** ****** ****** ****** ******
  13  ****** ****** ****** ****** ****** ****** ****** ****** ****** ******
      ****** ****** ****** ****** ****** ****** ****** ****** ****** ******
      ****** ****** ****** ****** ****** ****** ****** ****** ****** ******
  14  ****** ****** ****** ****** ****** ****** ****** ****** ****** ******
      ****** ****** ****** ****** ****** ****** ****** ****** ****** ******
      ****** ****** ****** ****** ****** ****** ****** ****** ****** ******
  15  ****** ****** ****** ****** ****** ****** ****** ****** ****** ******
      ****** ****** ****** ****** ****** ****** ****** ****** ****** ******
      ****** ****** ****** ****** ****** ****** ****** ****** ****** ******
  16  ****** ****** ****** ****** ****** ****** ****** ****** ****** ******
      ****** ****** ****** ****** ****** ****** ****** ****** ****** ******
      ****** ****** ****** ****** ****** ****** ****** ****** ****** ******
  17  ****** ****** ****** ****** ****** ****** ****** ****** ****** ******
      ****** ****** ****** ****** ****** ****** ****** ****** ****** ******
      ****** ****** ****** ****** ****** ****** ****** ****** ****** ******
  18  ****** ****** ****** ****** ****** ****** ****** ****** ****** ******
      ****** ****** ****** ****** ****** ****** ****** ****** ****** ******
      ****** ****** ****** ****** ****** ****** ****** ****** ****** ******
  19  ****** ****** ****** ****** ****** ****** ****** ****** ****** ******
      ****** ****** ****** ****** ****** ****** ****** ****** ****** ******
      ****** ****** ****** ****** ****** ****** ****** ****** ****** ******
  20  ****** ****** ****** ****** ****** ****** ****** ****** ****** ******
      ****** ****** ****** ****** ****** ****** ****** ****** ****** ******
      ****** ****** ****** ****** ****** ****** ****** ****** ****** ******
  21  ****** ****** ****** ****** ****** ****** ****** ****** ****** ******
      ****** ****** ****** ****** ****** ****** ****** ****** ****** ******
      ****** ****** ****** ****** ****** ****** ****** ****** ****** ******
  22  ****** ****** ****** ****** ****** ****** ****** ****** ****** ******
      ****** ****** ****** ****** ****** ****** ****** ****** ****** ******
      ****** ****** ****** ****** ****** ****** ****** ****** ****** ******
  23  ****** ****** ****** ****** ****** ****** ****** ****** ****** ******
      ****** ****** ****** ****** ****** ****** ****** ****** ****** ******
      ****** ****** ****** ****** ****** ****** ****** ****** ****** ******
  24  ****** ****** ****** ****** ****** ****** ****** ****** ****** ******
      ****** ****** ****** ****** ****** ****** ****** ****** ****** ******
      ****** ****** ****** ****** ****** ****** ****** ****** ****** ******
  25  ****** ****** ****** ****** ****** ****** ****** ****** ****** ******
      ****** ****** ****** ****** ****** ****** ****** ****** ****** ******
      ****** ****** ****** ****** ****** ****** ****** ****** ****** ******

 HEAD WILL BE SAVED ON UNIT   51 AT END OF TIME STEP    1, STRESS PERIOD    8
1
  VOLUMETRIC BUDGET FOR ENTIRE MODEL AT END OF TIME STEP    1, STRESS PERIOD   8
  ------------------------------------------------------------------------------

     CUMULATIVE VOLUMES      L**3       RATES FOR THIS TIME STEP      L**3/T
     ------------------                 ------------------------

           IN:                                      IN:
           ---                                      ---
             STORAGE =    33355666.1130               STORAGE =        1273.1074
       CONSTANT HEAD =    19309209.3823         CONSTANT HEAD =       33130.7483
               WELLS =           0.0000                 WELLS =           0.0000
            RECHARGE =    17608800.0000              RECHARGE =       27600.0000
      STREAM LEAKAGE =     9450105.6710        STREAM LEAKAGE =       15895.4360

            TOTAL IN =    79723781.1663              TOTAL IN =       77899.2917

          OUT:                                     OUT:
          ----                                     ----
             STORAGE =      951371.9096               STORAGE =        1498.9947
       CONSTANT HEAD =           0.0000         CONSTANT HEAD =           0.0000
               WELLS =    28457618.0668                 WELLS =       38983.0384
            RECHARGE =           0.0000              RECHARGE =           0.0000
      STREAM LEAKAGE =    50314792.9045        STREAM LEAKAGE =       37417.2502

           TOTAL OUT =    79723782.8809             TOTAL OUT =       77899.2833

            IN - OUT =          -1.7145              IN - OUT =       8.4191E-03

 PERCENT DISCREPANCY =          -0.00     PERCENT DISCREPANCY =           0.00






         TIME SUMMARY AT END OF TIME STEP    1 IN STRESS PERIOD    8
                    SECONDS     MINUTES      HOURS       DAYS        YEARS
                    -----------------------------------------------------------
   TIME STEP LENGTH 7.86240E+06 1.31040E+05  2184.0      91.000     0.24914    
 STRESS PERIOD TIME 7.86240E+06 1.31040E+05  2184.0      91.000     0.24914    
         TOTAL TIME 6.30720E+07 1.05120E+06  17520.      730.00      1.9986    
1
1
                            STRESS PERIOD NO.    9, LENGTH =   92.00000    
                            -----------------------------------------------

                              NUMBER OF TIME STEPS =     1

                               MULTIPLIER FOR DELT =     1.500

                            INITIAL TIME STEP SIZE =   92.00000    

 WELL NO.  LAYER   ROW   COL   STRESS RATE         
 --------------------------------------------------
      1      1     18     15      -8387.    
      2      1     17     18      -8258.    
      3      1     14     29      -8048.    
      4      1     19     28     -0.1429E+05

      4 WELLS

                 RECHARGE =  5.000000E-04

 REUSING STREAM SEGMENT DATA FROM LAST STRESS PERIOD
 
 SOLVING FOR HEAD 


     6 CALLS TO PCG ROUTINE FOR TIME STEP   1 IN STRESS PERIOD    9
    23 TOTAL ITERATIONS

 OUTPUT CONTROL FOR STRESS PERIOD    9   TIME STEP    1
    SAVE BUDGET
    SAVE HEAD FOR ALL LAYERS
    PRINT HEAD FOR ALL LAYERS
 UBDSV2 SAVING "STREAMFLOW OUT  " ON UNIT  50 AT TIME STEP  1, STRESS PERIOD   9



 STREAM LISTING     PERIOD      9   STEP        1

 LAYER ROW COL. STREAM  RCH.  FLOW INTO     FLOW TO   FLOW OUT OF   OVRLND.     DIRECT     STREAM       STREAM     STREAM     STREAM   STREAMBED  STREAMBED
                SEG.NO.  NO.  STRM. RCH.    AQUIFER    STRM. RCH.    RUNOFF     PRECIP       ET          HEAD       DEPTH      WIDTH   CONDCTNC.   GRADIENT

   1   13    1     1     1    1.0000E+05 -1.6601E+03   1.0166E+05  0.000E+00  0.000E+00  0.000E+00  4.84067E+01  1.454E-01  2.000E+01  2.000E+04 -8.301E-02
   1   13    2     1     2    1.0166E+05 -2.6095E+03   1.0427E+05  0.000E+00  0.000E+00  0.000E+00  4.79313E+01  1.472E-01  2.000E+01  2.000E+04 -1.305E-01
   1   14    3     1     3    1.0427E+05 -3.9940E+02   1.0467E+05  0.000E+00  0.000E+00  0.000E+00  4.74553E+01  1.485E-01  2.000E+01  2.000E+04 -1.997E-02
   1   15    4     1     4    1.0467E+05 -3.6019E+02   1.0503E+05  0.000E+00  0.000E+00  0.000E+00  4.69784E+01  1.488E-01  2.000E+01  2.000E+04 -1.801E-02
   1   16    5     1     5    1.0503E+05 -1.2654E+03   1.0629E+05  0.000E+00  0.000E+00  0.000E+00  4.65018E+01  1.495E-01  2.000E+01  2.000E+04 -6.327E-02
   1   16    6     1     6    1.0629E+05 -7.9520E+02   1.0709E+05  0.000E+00  0.000E+00  0.000E+00  4.60254E+01  1.504E-01  2.000E+01  2.000E+04 -3.976E-02
   1   16    7     1     7    1.0709E+05 -7.5216E+02   1.0784E+05  0.000E+00  0.000E+00  0.000E+00  4.55488E+01  1.510E-01  2.000E+01  2.000E+04 -3.761E-02
   1   16    8     1     8    1.0784E+05 -6.9968E+02   1.0854E+05  0.000E+00  0.000E+00  0.000E+00  4.50721E+01  1.516E-01  2.000E+01  2.000E+04 -3.498E-02
   1   16    9     1     9    1.0854E+05 -6.1625E+02   1.0916E+05  0.000E+00  0.000E+00  0.000E+00  4.45954E+01  1.522E-01  2.000E+01  2.000E+04 -3.081E-02
   1   16   10     1    10    1.0916E+05 -4.8457E+02   1.0964E+05  0.000E+00  0.000E+00  0.000E+00  4.41186E+01  1.527E-01  2.000E+01  2.000E+04 -2.423E-02
   1   16   11     1    11    1.0964E+05 -2.6765E+02   1.0991E+05  0.000E+00  0.000E+00  0.000E+00  4.36416E+01  1.530E-01  2.000E+01  2.000E+04 -1.338E-02
   1   16   12     1    12    1.0991E+05  2.3793E+02   1.0967E+05  0.000E+00  0.000E+00  0.000E+00  4.31644E+01  1.530E-01  2.000E+01  2.000E+04  1.190E-02
   1   15   13     1    13    1.0967E+05  1.5814E+02   1.0951E+05  0.000E+00  0.000E+00  0.000E+00  4.26869E+01  1.528E-01  2.000E+01  2.000E+04  7.907E-03
   1   14   14     1    14    1.0951E+05 -3.6369E+02   1.0988E+05  0.000E+00  0.000E+00  0.000E+00  4.22097E+01  1.529E-01  2.000E+01  2.000E+04 -1.818E-02
   1   13   15     1    15    1.0988E+05 -1.0756E+03   1.1095E+05  0.000E+00  0.000E+00  0.000E+00  4.17331E+01  1.535E-01  2.000E+01  2.000E+04 -5.378E-02
   1   12   16     1    16    1.1095E+05 -2.3559E+03   1.1331E+05  0.000E+00  0.000E+00  0.000E+00  4.12572E+01  1.549E-01  2.000E+01  2.000E+04 -1.178E-01
   1   12   17     1    17    1.1331E+05 -1.2417E+03   1.1455E+05  0.000E+00  0.000E+00  0.000E+00  4.07814E+01  1.564E-01  2.000E+01  2.000E+04 -6.209E-02
   1   12   18     1    18    1.1455E+05 -1.1547E+03   1.1571E+05  0.000E+00  0.000E+00  0.000E+00  4.03051E+01  1.574E-01  2.000E+01  2.000E+04 -5.773E-02
   1   12   19     1    19    1.1571E+05 -1.8407E+03   1.1755E+05  0.000E+00  0.000E+00  0.000E+00  3.98291E+01  1.586E-01  2.000E+01  2.000E+04 -9.204E-02
   1   13   20     1    20    1.1755E+05 -5.9259E+02   1.1814E+05  0.000E+00  0.000E+00  0.000E+00  3.93528E+01  1.596E-01  2.000E+01  2.000E+04 -2.963E-02
   1   14   21     1    21    1.1814E+05  2.3911E+02   1.1790E+05  0.000E+00  0.000E+00  0.000E+00  3.88757E+01  1.598E-01  2.000E+01  2.000E+04  1.196E-02
   1   14   22     1    22    1.1790E+05  5.1538E+03   1.1275E+05  0.000E+00  0.000E+00  0.000E+00  3.83962E+01  1.576E-01  2.000E+01  2.000E+04  2.577E-01
   1    9   30     2     1    5.0000E+04  1.6023E+02   4.9840E+04  0.000E+00  0.000E+00  0.000E+00  4.02408E+01  1.158E-01  2.000E+01  2.000E+04  8.011E-03
   1    9   29     2     2    4.9840E+04 -1.9985E+02   5.0040E+04  0.000E+00  0.000E+00  0.000E+00  3.99908E+01  1.158E-01  2.000E+01  2.000E+04 -9.993E-03
   1    9   28     2     3    5.0040E+04 -5.9003E+02   5.0630E+04  0.000E+00  0.000E+00  0.000E+00  3.97413E+01  1.163E-01  2.000E+01  2.000E+04 -2.950E-02
   1    9   27     2     4    5.0630E+04 -2.0214E+03   5.2651E+04  0.000E+00  0.000E+00  0.000E+00  3.94931E+01  1.181E-01  2.000E+01  2.000E+04 -1.011E-01
   1   10   26     2     5    5.2651E+04 -9.3852E+02   5.3590E+04  0.000E+00  0.000E+00  0.000E+00  3.92452E+01  1.202E-01  2.000E+01  2.000E+04 -4.693E-02
   1   11   25     2     6    5.3590E+04 -8.5932E+02   5.4449E+04  0.000E+00  0.000E+00  0.000E+00  3.89964E+01  1.214E-01  2.000E+01  2.000E+04 -4.297E-02
   1   12   24     2     7    5.4449E+04 -1.2310E+03   5.5680E+04  0.000E+00  0.000E+00  0.000E+00  3.87478E+01  1.228E-01  2.000E+01  2.000E+04 -6.155E-02
   1   13   23     2     8    5.5680E+04 -2.1241E+02   5.5892E+04  0.000E+00  0.000E+00  0.000E+00  3.84987E+01  1.237E-01  2.000E+01  2.000E+04 -1.062E-02
   1   14   22     2     9    5.5892E+04  2.1781E+03   5.3714E+04  0.000E+00  0.000E+00  0.000E+00  3.82474E+01  1.224E-01  2.000E+01  2.000E+04  1.089E-01
   1   14   22     3     1    1.6646E+05 -8.3511E+03   1.7481E+05  0.000E+00  0.000E+00  0.000E+00  3.77210E+01  1.654E-01  2.000E+01  2.000E+04 -4.176E-01
   1   15   23     3     2    1.7481E+05 -1.9122E+02   1.7500E+05  0.000E+00  0.000E+00  0.000E+00  3.68345E+01  1.679E-01  2.000E+01  2.000E+04 -9.561E-03
   1   15   24     3     3    1.7500E+05 -1.2800E+02   1.7513E+05  0.000E+00  0.000E+00  0.000E+00  3.59457E+01  1.680E-01  2.000E+01  2.000E+04 -6.400E-03
   1   15   25     3     4    1.7513E+05 -1.1526E+02   1.7525E+05  0.000E+00  0.000E+00  0.000E+00  3.50569E+01  1.680E-01  2.000E+01  2.000E+04 -5.763E-03
   1   15   26     3     5    1.7525E+05  1.8141E+01   1.7523E+05  0.000E+00  0.000E+00  0.000E+00  3.41681E+01  1.681E-01  2.000E+01  2.000E+04  9.070E-04
   1   16   27     3     6    1.7523E+05  2.8859E+02   1.7494E+05  0.000E+00  0.000E+00  0.000E+00  3.32791E+01  1.680E-01  2.000E+01  2.000E+04  1.443E-02
   1   17   28     3     7    1.7494E+05  3.8053E+03   1.7113E+05  0.000E+00  0.000E+00  0.000E+00  3.23890E+01  1.668E-01  2.000E+01  2.000E+04  1.903E-01
   1   18   29     3     8    1.7113E+05  4.5094E+03   1.6662E+05  0.000E+00  0.000E+00  0.000E+00  3.14977E+01  1.644E-01  2.000E+01  2.000E+04  2.255E-01
   1   18   30     3     9    1.6662E+05  4.3978E+02   1.6618E+05  0.000E+00  0.000E+00  0.000E+00  3.06074E+01  1.629E-01  2.000E+01  2.000E+04  2.199E-02



1
              HEAD IN LAYER   1 AT END OF TIME STEP   1 IN STRESS PERIOD    9
  ---------------------------------------------------------------------------

          1      2      3      4      5      6      7      8      9     10
         11     12     13     14     15     16     17     18     19     20
         21     22     23     24     25     26     27     28     29     30
 .........................................................................
   1  ****** ****** ****** ****** ****** ****** ****** ****** ****** ******
      ****** ****** ****** ****** ****** ****** ****** ****** ****** ******
      ****** ****** ****** ****** ****** ****** ****** ****** ****** ******
   2  ****** ****** ****** ****** ****** ****** ****** ****** ****** ******
      ****** ****** ****** ****** ****** ****** ****** ****** ****** ******
      ****** ****** ****** ****** ****** ****** ****** ****** ****** ******
   3  ****** ****** ****** ****** ****** ****** ****** ****** ****** ******
      ****** ****** ****** ****** ****** ****** ****** ****** ****** ******
      ****** ****** ****** ****** ****** ****** ****** ****** ****** ******
   4  ****** ****** ****** ****** ****** ****** ****** ****** ****** ******
      ****** ****** ****** ****** ****** ****** ****** ****** ****** ******
      ****** ****** ****** ****** ****** ****** ****** ****** ****** ******
   5  ****** ****** ****** ****** ****** ****** ****** ****** ****** ******
      ****** ****** ****** ****** ****** ****** ****** ****** ****** ******
      ****** ****** ****** ****** ****** ****** ****** ****** ****** ******
   6  ****** ****** ****** ****** ****** ****** ****** ****** ****** ******
      ****** ****** ****** ****** ****** ****** ****** ****** ****** ******
      ****** ****** ****** ****** ****** ****** ****** ****** ****** ******
   7  ****** ****** ****** ****** ****** ****** ****** ****** ****** ******
      ****** ****** ****** ****** ****** ****** ****** ****** ****** ******
      ****** ****** ****** ****** ****** ****** ****** ****** ****** ******
   8  ****** ****** ****** ****** ****** ****** ****** ****** ****** ******
      ****** ****** ****** ****** ****** ****** ****** ****** ****** ******
      ****** ****** ****** ****** ****** ****** ****** ****** ****** ******
   9  ****** ****** ****** ****** ****** ****** ****** ****** ****** ******
      ****** ****** ****** ****** ****** ****** ****** ****** ****** ******
      ****** ****** ****** ****** ****** ****** ****** ****** ****** ******
  10  ****** ****** ****** ****** ****** ****** ****** ****** ****** ******
      ****** ****** ****** ****** ****** ****** ****** ****** ****** ******
      ****** ****** ****** ****** ****** ****** ****** ****** ****** ******
  11  ****** ****** ****** ****** ****** ****** ****** ****** ****** ******
      ****** ****** ****** ****** ****** ****** ****** ****** ****** ******
      ****** ****** ****** ****** ****** ****** ****** ****** ****** ******
  12  ****** ****** ****** ****** ****** ****** ****** ****** ****** ******
      ****** ****** ****** ****** ****** ****** ****** ****** ****** ******
      ****** ****** ****** ****** ****** ****** ****** ****** ****** ******
  13  ****** ****** ****** ****** ****** ****** ****** ****** ****** ******
      ****** ****** ****** ****** ****** ****** ****** ****** ****** ******
      ****** ****** ****** ****** ****** ****** ****** ****** ****** ******
  14  ****** ****** ****** ****** ****** ****** ****** ****** ****** ******
      ****** ****** ****** ****** ****** ****** ****** ****** ****** ******
      ****** ****** ****** ****** ****** ****** ****** ****** ****** ******
  15  ****** ****** ****** ****** ****** ****** ****** ****** ****** ******
      ****** ****** ****** ****** ****** ****** ****** ****** ****** ******
      ****** ****** ****** ****** ****** ****** ****** ****** ****** ******
  16  ****** ****** ****** ****** ****** ****** ****** ****** ****** ******
      ****** ****** ****** ****** ****** ****** ****** ****** ****** ******
      ****** ****** ****** ****** ****** ****** ****** ****** ****** ******
  17  ****** ****** ****** ****** ****** ****** ****** ****** ****** ******
      ****** ****** ****** ****** ****** ****** ****** ****** ****** ******
      ****** ****** ****** ****** ****** ****** ****** ****** ****** ******
  18  ****** ****** ****** ****** ****** ****** ****** ****** ****** ******
      ****** ****** ****** ****** ****** ****** ****** ****** ****** ******
      ****** ****** ****** ****** ****** ****** ****** ****** ****** ******
  19  ****** ****** ****** ****** ****** ****** ****** ****** ****** ******
      ****** ****** ****** ****** ****** ****** ****** ****** ****** ******
      ****** ****** ****** ****** ****** ****** ****** ****** ****** ******
  20  ****** ****** ****** ****** ****** ****** ****** ****** ****** ******
      ****** ****** ****** ****** ****** ****** ****** ****** ****** ******
      ****** ****** ****** ****** ****** ****** ****** ****** ****** ******
  21  ****** ****** ****** ****** ****** ****** ****** ****** ****** ******
      ****** ****** ****** ****** ****** ****** ****** ****** ****** ******
      ****** ****** ****** ****** ****** ****** ****** ****** ****** ******
  22  ****** ****** ****** ****** ****** ****** ****** ****** ****** ******
      ****** ****** ****** ****** ****** ****** ****** ****** ****** ******
      ****** ****** ****** ****** ****** ****** ****** ****** ****** ******
  23  ****** ****** ****** ****** ****** ****** ****** ****** ****** ******
      ****** ****** ****** ****** ****** ****** ****** ****** ****** ******
      ****** ****** ****** ****** ****** ****** ****** ****** ****** ******
  24  ****** ****** ****** ****** ****** ****** ****** ****** ****** ******
      ****** ****** ****** ****** ****** ****** ****** ****** ****** ******
      ****** ****** ****** ****** ****** ****** ****** ****** ****** ******
  25  ****** ****** ****** ****** ****** ****** ****** ****** ****** ******
      ****** ****** ****** ****** ****** ****** ****** ****** ****** ******
      ****** ****** ****** ****** ****** ****** ****** ****** ****** ******

 HEAD WILL BE SAVED ON UNIT   51 AT END OF TIME STEP    1, STRESS PERIOD    9
1
  VOLUMETRIC BUDGET FOR ENTIRE MODEL AT END OF TIME STEP    1, STRESS PERIOD   9
  ------------------------------------------------------------------------------

     CUMULATIVE VOLUMES      L**3       RATES FOR THIS TIME STEP      L**3/T
     ------------------                 ------------------------

           IN:                                      IN:
           ---                                      ---
             STORAGE =    34007086.0156               STORAGE =        7080.6511
       CONSTANT HEAD =    22463629.6064         CONSTANT HEAD =       34287.1763
               WELLS =           0.0000                 WELLS =           0.0000
            RECHARGE =    18878400.0000              RECHARGE =       13800.0000
      STREAM LEAKAGE =    11031452.6622        STREAM LEAKAGE =       17188.5543

            TOTAL IN =    86380568.2842              TOTAL IN =       72356.3817

          OUT:                                     OUT:
          ----                                     ----
             STORAGE =      951371.9096               STORAGE =           0.0000
       CONSTANT HEAD =           0.0000         CONSTANT HEAD =           0.0000
               WELLS =    32044057.6040                 WELLS =       38983.0384
            RECHARGE =           0.0000              RECHARGE =           0.0000
      STREAM LEAKAGE =    53385140.5528        STREAM LEAKAGE =       33373.3440

           TOTAL OUT =    86380570.0664             TOTAL OUT =       72356.3825

            IN - OUT =          -1.7822              IN - OUT =      -7.3549E-04

 PERCENT DISCREPANCY =          -0.00     PERCENT DISCREPANCY =          -0.00






         TIME SUMMARY AT END OF TIME STEP    1 IN STRESS PERIOD    9
                    SECONDS     MINUTES      HOURS       DAYS        YEARS
                    -----------------------------------------------------------
   TIME STEP LENGTH 7.94880E+06 1.32480E+05  2208.0      92.000     0.25188    
 STRESS PERIOD TIME 7.94880E+06 1.32480E+05  2208.0      92.000     0.25188    
         TOTAL TIME 7.10208E+07 1.18368E+06  19728.      822.00      2.2505    
1
1
                            STRESS PERIOD NO.   10, LENGTH =   91.00000    
                            -----------------------------------------------

                              NUMBER OF TIME STEPS =     1

                               MULTIPLIER FOR DELT =     1.500

                            INITIAL TIME STEP SIZE =   91.00000    

 WELL NO.  LAYER   ROW   COL   STRESS RATE         
 --------------------------------------------------
      1      1     18     15      -8387.    
      2      1     17     18      -8258.    
      3      1     14     29      -8048.    
      4      1     19     28     -0.1429E+05

      4 WELLS

                 RECHARGE =  2.000000E-03

 REUSING STREAM SEGMENT DATA FROM LAST STRESS PERIOD
 
 SOLVING FOR HEAD 


     7 CALLS TO PCG ROUTINE FOR TIME STEP   1 IN STRESS PERIOD   10
    26 TOTAL ITERATIONS

 OUTPUT CONTROL FOR STRESS PERIOD   10   TIME STEP    1
    SAVE BUDGET
    SAVE HEAD FOR ALL LAYERS
    PRINT HEAD FOR ALL LAYERS
 UBDSV2 SAVING "STREAMFLOW OUT  " ON UNIT  50 AT TIME STEP  1, STRESS PERIOD  10



 STREAM LISTING     PERIOD     10   STEP        1

 LAYER ROW COL. STREAM  RCH.  FLOW INTO     FLOW TO   FLOW OUT OF   OVRLND.     DIRECT     STREAM       STREAM     STREAM     STREAM   STREAMBED  STREAMBED
                SEG.NO.  NO.  STRM. RCH.    AQUIFER    STRM. RCH.    RUNOFF     PRECIP       ET          HEAD       DEPTH      WIDTH   CONDCTNC.   GRADIENT

   1   13    1     1     1    1.0000E+05 -2.1162E+03   1.0212E+05  0.000E+00  0.000E+00  0.000E+00  4.84069E+01  1.456E-01  2.000E+01  2.000E+04 -1.058E-01
   1   13    2     1     2    1.0212E+05 -3.1152E+03   1.0523E+05  0.000E+00  0.000E+00  0.000E+00  4.79319E+01  1.478E-01  2.000E+01  2.000E+04 -1.558E-01
   1   14    3     1     3    1.0523E+05 -5.8650E+02   1.0582E+05  0.000E+00  0.000E+00  0.000E+00  4.74562E+01  1.494E-01  2.000E+01  2.000E+04 -2.933E-02
   1   15    4     1     4    1.0582E+05 -5.6003E+02   1.0638E+05  0.000E+00  0.000E+00  0.000E+00  4.69794E+01  1.499E-01  2.000E+01  2.000E+04 -2.800E-02
   1   16    5     1     5    1.0638E+05 -1.8840E+03   1.0826E+05  0.000E+00  0.000E+00  0.000E+00  4.65032E+01  1.509E-01  2.000E+01  2.000E+04 -9.420E-02
   1   16    6     1     6    1.0826E+05 -1.1575E+03   1.0942E+05  0.000E+00  0.000E+00  0.000E+00  4.60272E+01  1.522E-01  2.000E+01  2.000E+04 -5.787E-02
   1   16    7     1     7    1.0942E+05 -1.0967E+03   1.1052E+05  0.000E+00  0.000E+00  0.000E+00  4.55509E+01  1.531E-01  2.000E+01  2.000E+04 -5.483E-02
   1   16    8     1     8    1.1052E+05 -1.0387E+03   1.1155E+05  0.000E+00  0.000E+00  0.000E+00  4.50745E+01  1.540E-01  2.000E+01  2.000E+04 -5.194E-02
   1   16    9     1     9    1.1155E+05 -9.5365E+02   1.1251E+05  0.000E+00  0.000E+00  0.000E+00  4.45980E+01  1.549E-01  2.000E+01  2.000E+04 -4.768E-02
   1   16   10     1    10    1.1251E+05 -8.2197E+02   1.1333E+05  0.000E+00  0.000E+00  0.000E+00  4.41215E+01  1.556E-01  2.000E+01  2.000E+04 -4.110E-02
   1   16   11     1    11    1.1333E+05 -6.0826E+02   1.1394E+05  0.000E+00  0.000E+00  0.000E+00  4.36448E+01  1.562E-01  2.000E+01  2.000E+04 -3.041E-02
   1   16   12     1    12    1.1394E+05 -3.3063E+02   1.1427E+05  0.000E+00  0.000E+00  0.000E+00  4.31679E+01  1.566E-01  2.000E+01  2.000E+04 -1.653E-02
   1   15   13     1    13    1.1427E+05 -4.2868E+02   1.1470E+05  0.000E+00  0.000E+00  0.000E+00  4.26910E+01  1.569E-01  2.000E+01  2.000E+04 -2.143E-02
   1   14   14     1    14    1.1470E+05 -9.5853E+02   1.1566E+05  0.000E+00  0.000E+00  0.000E+00  4.22143E+01  1.575E-01  2.000E+01  2.000E+04 -4.793E-02
   1   13   15     1    15    1.1566E+05 -1.6612E+03   1.1732E+05  0.000E+00  0.000E+00  0.000E+00  4.17381E+01  1.585E-01  2.000E+01  2.000E+04 -8.306E-02
   1   12   16     1    16    1.1732E+05 -2.9215E+03   1.2024E+05  0.000E+00  0.000E+00  0.000E+00  4.12627E+01  1.604E-01  2.000E+01  2.000E+04 -1.461E-01
   1   12   17     1    17    1.2024E+05 -1.6688E+03   1.2191E+05  0.000E+00  0.000E+00  0.000E+00  4.07872E+01  1.622E-01  2.000E+01  2.000E+04 -8.344E-02
   1   12   18     1    18    1.2191E+05 -1.5773E+03   1.2349E+05  0.000E+00  0.000E+00  0.000E+00  4.03113E+01  1.635E-01  2.000E+01  2.000E+04 -7.886E-02
   1   12   19     1    19    1.2349E+05 -2.3610E+03   1.2585E+05  0.000E+00  0.000E+00  0.000E+00  3.98356E+01  1.651E-01  2.000E+01  2.000E+04 -1.180E-01
   1   13   20     1    20    1.2585E+05 -1.1138E+03   1.2696E+05  0.000E+00  0.000E+00  0.000E+00  3.93597E+01  1.665E-01  2.000E+01  2.000E+04 -5.569E-02
   1   14   21     1    21    1.2696E+05 -2.8448E+02   1.2724E+05  0.000E+00  0.000E+00  0.000E+00  3.88829E+01  1.670E-01  2.000E+01  2.000E+04 -1.422E-02
   1   14   22     1    22    1.2724E+05  5.0280E+03   1.2222E+05  0.000E+00  0.000E+00  0.000E+00  3.84038E+01  1.652E-01  2.000E+01  2.000E+04  2.514E-01
   1    9   30     2     1    5.0000E+04 -2.5448E+02   5.0254E+04  0.000E+00  0.000E+00  0.000E+00  4.02410E+01  1.160E-01  2.000E+01  2.000E+04 -1.272E-02
   1    9   29     2     2    5.0254E+04 -6.1230E+02   5.0867E+04  0.000E+00  0.000E+00  0.000E+00  3.99916E+01  1.166E-01  2.000E+01  2.000E+04 -3.062E-02
   1    9   28     2     3    5.0867E+04 -1.0018E+03   5.1869E+04  0.000E+00  0.000E+00  0.000E+00  3.97428E+01  1.178E-01  2.000E+01  2.000E+04 -5.009E-02
   1    9   27     2     4    5.1869E+04 -2.5756E+03   5.4444E+04  0.000E+00  0.000E+00  0.000E+00  3.94952E+01  1.202E-01  2.000E+01  2.000E+04 -1.288E-01
   1   10   26     2     5    5.4444E+04 -1.4925E+03   5.5937E+04  0.000E+00  0.000E+00  0.000E+00  3.92479E+01  1.229E-01  2.000E+01  2.000E+04 -7.463E-02
   1   11   25     2     6    5.5937E+04 -1.3887E+03   5.7325E+04  0.000E+00  0.000E+00  0.000E+00  3.89999E+01  1.249E-01  2.000E+01  2.000E+04 -6.944E-02
   1   12   24     2     7    5.7325E+04 -1.7102E+03   5.9036E+04  0.000E+00  0.000E+00  0.000E+00  3.87519E+01  1.269E-01  2.000E+01  2.000E+04 -8.551E-02
   1   13   23     2     8    5.9036E+04 -3.6127E+02   5.9397E+04  0.000E+00  0.000E+00  0.000E+00  3.85032E+01  1.282E-01  2.000E+01  2.000E+04 -1.806E-02
   1   14   22     2     9    5.9397E+04  1.9956E+03   5.7401E+04  0.000E+00  0.000E+00  0.000E+00  3.82522E+01  1.272E-01  2.000E+01  2.000E+04  9.978E-02
   1   14   22     3     1    1.7962E+05 -8.4773E+03   1.8810E+05  0.000E+00  0.000E+00  0.000E+00  3.77285E+01  1.730E-01  2.000E+01  2.000E+04 -4.239E-01
   1   15   23     3     2    1.8810E+05 -3.5331E+02   1.8845E+05  0.000E+00  0.000E+00  0.000E+00  3.68421E+01  1.755E-01  2.000E+01  2.000E+04 -1.767E-02
   1   15   24     3     3    1.8845E+05 -2.6491E+02   1.8871E+05  0.000E+00  0.000E+00  0.000E+00  3.59534E+01  1.756E-01  2.000E+01  2.000E+04 -1.325E-02
   1   15   25     3     4    1.8871E+05 -2.5560E+02   1.8897E+05  0.000E+00  0.000E+00  0.000E+00  3.50647E+01  1.758E-01  2.000E+01  2.000E+04 -1.278E-02
   1   15   26     3     5    1.8897E+05 -1.4395E+02   1.8911E+05  0.000E+00  0.000E+00  0.000E+00  3.41759E+01  1.759E-01  2.000E+01  2.000E+04 -7.197E-03
   1   16   27     3     6    1.8911E+05  1.0301E+02   1.8901E+05  0.000E+00  0.000E+00  0.000E+00  3.32870E+01  1.759E-01  2.000E+01  2.000E+04  5.151E-03
   1   17   28     3     7    1.8901E+05  3.2856E+03   1.8572E+05  0.000E+00  0.000E+00  0.000E+00  3.23972E+01  1.750E-01  2.000E+01  2.000E+04  1.643E-01
   1   18   29     3     8    1.8572E+05  3.9602E+03   1.8176E+05  0.000E+00  0.000E+00  0.000E+00  3.15062E+01  1.729E-01  2.000E+01  2.000E+04  1.980E-01
   1   18   30     3     9    1.8176E+05  1.5876E+01   1.8175E+05  0.000E+00  0.000E+00  0.000E+00  3.06162E+01  1.718E-01  2.000E+01  2.000E+04  7.938E-04



1
              HEAD IN LAYER   1 AT END OF TIME STEP   1 IN STRESS PERIOD   10
  ---------------------------------------------------------------------------

          1      2      3      4      5      6      7      8      9     10
         11     12     13     14     15     16     17     18     19     20
         21     22     23     24     25     26     27     28     29     30
 .........................................................................
   1  ****** ****** ****** ****** ****** ****** ****** ****** ****** ******
      ****** ****** ****** ****** ****** ****** ****** ****** ****** ******
      ****** ****** ****** ****** ****** ****** ****** ****** ****** ******
   2  ****** ****** ****** ****** ****** ****** ****** ****** ****** ******
      ****** ****** ****** ****** ****** ****** ****** ****** ****** ******
      ****** ****** ****** ****** ****** ****** ****** ****** ****** ******
   3  ****** ****** ****** ****** ****** ****** ****** ****** ****** ******
      ****** ****** ****** ****** ****** ****** ****** ****** ****** ******
      ****** ****** ****** ****** ****** ****** ****** ****** ****** ******
   4  ****** ****** ****** ****** ****** ****** ****** ****** ****** ******
      ****** ****** ****** ****** ****** ****** ****** ****** ****** ******
      ****** ****** ****** ****** ****** ****** ****** ****** ****** ******
   5  ****** ****** ****** ****** ****** ****** ****** ****** ****** ******
      ****** ****** ****** ****** ****** ****** ****** ****** ****** ******
      ****** ****** ****** ****** ****** ****** ****** ****** ****** ******
   6  ****** ****** ****** ****** ****** ****** ****** ****** ****** ******
      ****** ****** ****** ****** ****** ****** ****** ****** ****** ******
      ****** ****** ****** ****** ****** ****** ****** ****** ****** ******
   7  ****** ****** ****** ****** ****** ****** ****** ****** ****** ******
      ****** ****** ****** ****** ****** ****** ****** ****** ****** ******
      ****** ****** ****** ****** ****** ****** ****** ****** ****** ******
   8  ****** ****** ****** ****** ****** ****** ****** ****** ****** ******
      ****** ****** ****** ****** ****** ****** ****** ****** ****** ******
      ****** ****** ****** ****** ****** ****** ****** ****** ****** ******
   9  ****** ****** ****** ****** ****** ****** ****** ****** ****** ******
      ****** ****** ****** ****** ****** ****** ****** ****** ****** ******
      ****** ****** ****** ****** ****** ****** ****** ****** ****** ******
  10  ****** ****** ****** ****** ****** ****** ****** ****** ****** ******
      ****** ****** ****** ****** ****** ****** ****** ****** ****** ******
      ****** ****** ****** ****** ****** ****** ****** ****** ****** ******
  11  ****** ****** ****** ****** ****** ****** ****** ****** ****** ******
      ****** ****** ****** ****** ****** ****** ****** ****** ****** ******
      ****** ****** ****** ****** ****** ****** ****** ****** ****** ******
  12  ****** ****** ****** ****** ****** ****** ****** ****** ****** ******
      ****** ****** ****** ****** ****** ****** ****** ****** ****** ******
      ****** ****** ****** ****** ****** ****** ****** ****** ****** ******
  13  ****** ****** ****** ****** ****** ****** ****** ****** ****** ******
      ****** ****** ****** ****** ****** ****** ****** ****** ****** ******
      ****** ****** ****** ****** ****** ****** ****** ****** ****** ******
  14  ****** ****** ****** ****** ****** ****** ****** ****** ****** ******
      ****** ****** ****** ****** ****** ****** ****** ****** ****** ******
      ****** ****** ****** ****** ****** ****** ****** ****** ****** ******
  15  ****** ****** ****** ****** ****** ****** ****** ****** ****** ******
      ****** ****** ****** ****** ****** ****** ****** ****** ****** ******
      ****** ****** ****** ****** ****** ****** ****** ****** ****** ******
  16  ****** ****** ****** ****** ****** ****** ****** ****** ****** ******
      ****** ****** ****** ****** ****** ****** ****** ****** ****** ******
      ****** ****** ****** ****** ****** ****** ****** ****** ****** ******
  17  ****** ****** ****** ****** ****** ****** ****** ****** ****** ******
      ****** ****** ****** ****** ****** ****** ****** ****** ****** ******
      ****** ****** ****** ****** ****** ****** ****** ****** ****** ******
  18  ****** ****** ****** ****** ****** ****** ****** ****** ****** ******
      ****** ****** ****** ****** ****** ****** ****** ****** ****** ******
      ****** ****** ****** ****** ****** ****** ****** ****** ****** ******
  19  ****** ****** ****** ****** ****** ****** ****** ****** ****** ******
      ****** ****** ****** ****** ****** ****** ****** ****** ****** ******
      ****** ****** ****** ****** ****** ****** ****** ****** ****** ******
  20  ****** ****** ****** ****** ****** ****** ****** ****** ****** ******
      ****** ****** ****** ****** ****** ****** ****** ****** ****** ******
      ****** ****** ****** ****** ****** ****** ****** ****** ****** ******
  21  ****** ****** ****** ****** ****** ****** ****** ****** ****** ******
      ****** ****** ****** ****** ****** ****** ****** ****** ****** ******
      ****** ****** ****** ****** ****** ****** ****** ****** ****** ******
  22  ****** ****** ****** ****** ****** ****** ****** ****** ****** ******
      ****** ****** ****** ****** ****** ****** ****** ****** ****** ******
      ****** ****** ****** ****** ****** ****** ****** ****** ****** ******
  23  ****** ****** ****** ****** ****** ****** ****** ****** ****** ******
      ****** ****** ****** ****** ****** ****** ****** ****** ****** ******
      ****** ****** ****** ****** ****** ****** ****** ****** ****** ******
  24  ****** ****** ****** ****** ****** ****** ****** ****** ****** ******
      ****** ****** ****** ****** ****** ****** ****** ****** ****** ******
      ****** ****** ****** ****** ****** ****** ****** ****** ****** ******
  25  ****** ****** ****** ****** ****** ****** ****** ****** ****** ******
      ****** ****** ****** ****** ****** ****** ****** ****** ****** ******
      ****** ****** ****** ****** ****** ****** ****** ****** ****** ******

 HEAD WILL BE SAVED ON UNIT   51 AT END OF TIME STEP    1, STRESS PERIOD   10
1
  VOLUMETRIC BUDGET FOR ENTIRE MODEL AT END OF TIME STEP    1, STRESS PERIOD  10
  ------------------------------------------------------------------------------

     CUMULATIVE VOLUMES      L**3       RATES FOR THIS TIME STEP      L**3/T
     ------------------                 ------------------------

           IN:                                      IN:
           ---                                      ---
             STORAGE =    34007086.0156               STORAGE =           0.0000
       CONSTANT HEAD =    25314192.9076         CONSTANT HEAD =       31324.8714
               WELLS =           0.0000                 WELLS =           0.0000
            RECHARGE =    23901600.0000              RECHARGE =       55200.0000
      STREAM LEAKAGE =    12340783.1462        STREAM LEAKAGE =       14388.2471

            TOTAL IN =    95563662.0693              TOTAL IN =      100913.1185

          OUT:                                     OUT:
          ----                                     ----
             STORAGE =     2388573.5772               STORAGE =       15793.4249
       CONSTANT HEAD =           0.0000         CONSTANT HEAD =           0.0000
               WELLS =    35591514.1028                 WELLS =       38983.0384
            RECHARGE =           0.0000              RECHARGE =           0.0000
      STREAM LEAKAGE =    57583575.8965        STREAM LEAKAGE =       46136.6521

           TOTAL OUT =    95563663.5765             TOTAL OUT =      100913.1155

            IN - OUT =          -1.5071              IN - OUT =       3.0226E-03

 PERCENT DISCREPANCY =          -0.00     PERCENT DISCREPANCY =           0.00






         TIME SUMMARY AT END OF TIME STEP    1 IN STRESS PERIOD   10
                    SECONDS     MINUTES      HOURS       DAYS        YEARS
                    -----------------------------------------------------------
   TIME STEP LENGTH 7.86240E+06 1.31040E+05  2184.0      91.000     0.24914    
 STRESS PERIOD TIME 7.86240E+06 1.31040E+05  2184.0      91.000     0.24914    
         TOTAL TIME 7.88832E+07 1.31472E+06  21912.      913.00      2.4997    
1
1
                            STRESS PERIOD NO.   11, LENGTH =   91.00000    
                            -----------------------------------------------

                              NUMBER OF TIME STEPS =     1

                               MULTIPLIER FOR DELT =     1.500

                            INITIAL TIME STEP SIZE =   91.00000    

 WELL NO.  LAYER   ROW   COL   STRESS RATE         
 --------------------------------------------------
      1      1     18     15      -8387.    
      2      1     17     18      -8258.    
      3      1     14     29      -8048.    
      4      1     19     28     -0.1429E+05

      4 WELLS

                 RECHARGE =   0.00000    

 REUSING STREAM SEGMENT DATA FROM LAST STRESS PERIOD
 
 SOLVING FOR HEAD 


     7 CALLS TO PCG ROUTINE FOR TIME STEP   1 IN STRESS PERIOD   11
    26 TOTAL ITERATIONS

 OUTPUT CONTROL FOR STRESS PERIOD   11   TIME STEP    1
    SAVE BUDGET
    SAVE HEAD FOR ALL LAYERS
    PRINT HEAD FOR ALL LAYERS
 UBDSV2 SAVING "STREAMFLOW OUT  " ON UNIT  50 AT TIME STEP  1, STRESS PERIOD  11



 STREAM LISTING     PERIOD     11   STEP        1

 LAYER ROW COL. STREAM  RCH.  FLOW INTO     FLOW TO   FLOW OUT OF   OVRLND.     DIRECT     STREAM       STREAM     STREAM     STREAM   STREAMBED  STREAMBED
                SEG.NO.  NO.  STRM. RCH.    AQUIFER    STRM. RCH.    RUNOFF     PRECIP       ET          HEAD       DEPTH      WIDTH   CONDCTNC.   GRADIENT

   1   13    1     1     1    1.0000E+05 -1.5511E+03   1.0155E+05  0.000E+00  0.000E+00  0.000E+00  4.84067E+01  1.453E-01  2.000E+01  2.000E+04 -7.756E-02
   1   13    2     1     2    1.0155E+05 -2.4862E+03   1.0404E+05  0.000E+00  0.000E+00  0.000E+00  4.79312E+01  1.471E-01  2.000E+01  2.000E+04 -1.243E-01
   1   14    3     1     3    1.0404E+05 -3.5606E+02   1.0439E+05  0.000E+00  0.000E+00  0.000E+00  4.74551E+01  1.483E-01  2.000E+01  2.000E+04 -1.780E-02
   1   15    4     1     4    1.0439E+05 -3.1848E+02   1.0471E+05  0.000E+00  0.000E+00  0.000E+00  4.69781E+01  1.486E-01  2.000E+01  2.000E+04 -1.592E-02
   1   16    5     1     5    1.0471E+05 -1.1960E+03   1.0591E+05  0.000E+00  0.000E+00  0.000E+00  4.65015E+01  1.492E-01  2.000E+01  2.000E+04 -5.980E-02
   1   16    6     1     6    1.0591E+05 -7.4331E+02   1.0665E+05  0.000E+00  0.000E+00  0.000E+00  4.60250E+01  1.500E-01  2.000E+01  2.000E+04 -3.717E-02
   1   16    7     1     7    1.0665E+05 -7.0016E+02   1.0735E+05  0.000E+00  0.000E+00  0.000E+00  4.55484E+01  1.506E-01  2.000E+01  2.000E+04 -3.501E-02
   1   16    8     1     8    1.0735E+05 -6.4769E+02   1.0800E+05  0.000E+00  0.000E+00  0.000E+00  4.50717E+01  1.512E-01  2.000E+01  2.000E+04 -3.238E-02
   1   16    9     1     9    1.0800E+05 -5.6478E+02   1.0856E+05  0.000E+00  0.000E+00  0.000E+00  4.45949E+01  1.517E-01  2.000E+01  2.000E+04 -2.824E-02
   1   16   10     1    10    1.0856E+05 -4.3406E+02   1.0900E+05  0.000E+00  0.000E+00  0.000E+00  4.41181E+01  1.521E-01  2.000E+01  2.000E+04 -2.170E-02
   1   16   11     1    11    1.0900E+05 -2.1837E+02   1.0922E+05  0.000E+00  0.000E+00  0.000E+00  4.36411E+01  1.524E-01  2.000E+01  2.000E+04 -1.092E-02
   1   16   12     1    12    1.0922E+05  3.1539E+02   1.0890E+05  0.000E+00  0.000E+00  0.000E+00  4.31637E+01  1.524E-01  2.000E+01  2.000E+04  1.577E-02
   1   15   13     1    13    1.0890E+05  2.5935E+02   1.0864E+05  0.000E+00  0.000E+00  0.000E+00  4.26862E+01  1.521E-01  2.000E+01  2.000E+04  1.297E-02
   1   14   14     1    14    1.0864E+05 -2.5333E+02   1.0889E+05  0.000E+00  0.000E+00  0.000E+00  4.22090E+01  1.521E-01  2.000E+01  2.000E+04 -1.267E-02
   1   13   15     1    15    1.0889E+05 -9.6214E+02   1.0986E+05  0.000E+00  0.000E+00  0.000E+00  4.17322E+01  1.526E-01  2.000E+01  2.000E+04 -4.811E-02
   1   12   16     1    16    1.0986E+05 -2.2467E+03   1.1210E+05  0.000E+00  0.000E+00  0.000E+00  4.12563E+01  1.540E-01  2.000E+01  2.000E+04 -1.123E-01
   1   12   17     1    17    1.1210E+05 -1.1633E+03   1.1327E+05  0.000E+00  0.000E+00  0.000E+00  4.07804E+01  1.554E-01  2.000E+01  2.000E+04 -5.816E-02
   1   12   18     1    18    1.1327E+05 -1.0792E+03   1.1435E+05  0.000E+00  0.000E+00  0.000E+00  4.03041E+01  1.563E-01  2.000E+01  2.000E+04 -5.396E-02
   1   12   19     1    19    1.1435E+05 -1.7495E+03   1.1610E+05  0.000E+00  0.000E+00  0.000E+00  3.98279E+01  1.575E-01  2.000E+01  2.000E+04 -8.748E-02
   1   13   20     1    20    1.1610E+05 -5.0165E+02   1.1660E+05  0.000E+00  0.000E+00  0.000E+00  3.93516E+01  1.584E-01  2.000E+01  2.000E+04 -2.508E-02
   1   14   21     1    21    1.1660E+05  3.1307E+02   1.1628E+05  0.000E+00  0.000E+00  0.000E+00  3.88744E+01  1.585E-01  2.000E+01  2.000E+04  1.565E-02
   1   14   22     1    22    1.1628E+05  5.1738E+03   1.1111E+05  0.000E+00  0.000E+00  0.000E+00  3.83949E+01  1.562E-01  2.000E+01  2.000E+04  2.587E-01
   1    9   30     2     1    5.0000E+04  2.3323E+02   4.9767E+04  0.000E+00  0.000E+00  0.000E+00  4.02407E+01  1.157E-01  2.000E+01  2.000E+04  1.166E-02
   1    9   29     2     2    4.9767E+04 -1.2767E+02   4.9894E+04  0.000E+00  0.000E+00  0.000E+00  3.99906E+01  1.156E-01  2.000E+01  2.000E+04 -6.384E-03
   1    9   28     2     3    4.9894E+04 -5.1939E+02   5.0414E+04  0.000E+00  0.000E+00  0.000E+00  3.97411E+01  1.161E-01  2.000E+01  2.000E+04 -2.597E-02
   1    9   27     2     4    5.0414E+04 -1.9368E+03   5.2351E+04  0.000E+00  0.000E+00  0.000E+00  3.94928E+01  1.178E-01  2.000E+01  2.000E+04 -9.684E-02
   1   10   26     2     5    5.2351E+04 -8.3913E+02   5.3190E+04  0.000E+00  0.000E+00  0.000E+00  3.92447E+01  1.197E-01  2.000E+01  2.000E+04 -4.196E-02
   1   11   25     2     6    5.3190E+04 -7.5911E+02   5.3949E+04  0.000E+00  0.000E+00  0.000E+00  3.89958E+01  1.208E-01  2.000E+01  2.000E+04 -3.796E-02
   1   12   24     2     7    5.3949E+04 -1.1376E+03   5.5086E+04  0.000E+00  0.000E+00  0.000E+00  3.87470E+01  1.220E-01  2.000E+01  2.000E+04 -5.688E-02
   1   13   23     2     8    5.5086E+04 -1.7551E+02   5.5262E+04  0.000E+00  0.000E+00  0.000E+00  3.84979E+01  1.229E-01  2.000E+01  2.000E+04 -8.775E-03
   1   14   22     2     9    5.5262E+04  2.2075E+03   5.3054E+04  0.000E+00  0.000E+00  0.000E+00  3.82466E+01  1.216E-01  2.000E+01  2.000E+04  1.104E-01
   1   14   22     3     1    1.6416E+05 -8.3313E+03   1.7250E+05  0.000E+00  0.000E+00  0.000E+00  3.77196E+01  1.641E-01  2.000E+01  2.000E+04 -4.166E-01
   1   15   23     3     2    1.7250E+05 -1.6103E+02   1.7266E+05  0.000E+00  0.000E+00  0.000E+00  3.68332E+01  1.665E-01  2.000E+01  2.000E+04 -8.052E-03
   1   15   24     3     3    1.7266E+05 -9.9641E+01   1.7276E+05  0.000E+00  0.000E+00  0.000E+00  3.59444E+01  1.666E-01  2.000E+01  2.000E+04 -4.982E-03
   1   15   25     3     4    1.7276E+05 -8.6517E+01   1.7284E+05  0.000E+00  0.000E+00  0.000E+00  3.50555E+01  1.667E-01  2.000E+01  2.000E+04 -4.326E-03
   1   15   26     3     5    1.7284E+05  5.1831E+01   1.7279E+05  0.000E+00  0.000E+00  0.000E+00  3.41667E+01  1.667E-01  2.000E+01  2.000E+04  2.592E-03
   1   16   27     3     6    1.7279E+05  3.2619E+02   1.7247E+05  0.000E+00  0.000E+00  0.000E+00  3.32777E+01  1.666E-01  2.000E+01  2.000E+04  1.631E-02
   1   17   28     3     7    1.7247E+05  3.8959E+03   1.6857E+05  0.000E+00  0.000E+00  0.000E+00  3.23876E+01  1.653E-01  2.000E+01  2.000E+04  1.948E-01
   1   18   29     3     8    1.6857E+05  4.5831E+03   1.6399E+05  0.000E+00  0.000E+00  0.000E+00  3.14962E+01  1.629E-01  2.000E+01  2.000E+04  2.292E-01
   1   18   30     3     9    1.6399E+05  5.0556E+02   1.6348E+05  0.000E+00  0.000E+00  0.000E+00  3.06058E+01  1.614E-01  2.000E+01  2.000E+04  2.528E-02



1
              HEAD IN LAYER   1 AT END OF TIME STEP   1 IN STRESS PERIOD   11
  ---------------------------------------------------------------------------

          1      2      3      4      5      6      7      8      9     10
         11     12     13     14     15     16     17     18     19     20
         21     22     23     24     25     26     27     28     29     30
 .........................................................................
   1  ****** ****** ****** ****** ****** ****** ****** ****** ****** ******
      ****** ****** ****** ****** ****** ****** ****** ****** ****** ******
      ****** ****** ****** ****** ****** ****** ****** ****** ****** ******
   2  ****** ****** ****** ****** ****** ****** ****** ****** ****** ******
      ****** ****** ****** ****** ****** ****** ****** ****** ****** ******
      ****** ****** ****** ****** ****** ****** ****** ****** ****** ******
   3  ****** ****** ****** ****** ****** ****** ****** ****** ****** ******
      ****** ****** ****** ****** ****** ****** ****** ****** ****** ******
      ****** ****** ****** ****** ****** ****** ****** ****** ****** ******
   4  ****** ****** ****** ****** ****** ****** ****** ****** ****** ******
      ****** ****** ****** ****** ****** ****** ****** ****** ****** ******
      ****** ****** ****** ****** ****** ****** ****** ****** ****** ******
   5  ****** ****** ****** ****** ****** ****** ****** ****** ****** ******
      ****** ****** ****** ****** ****** ****** ****** ****** ****** ******
      ****** ****** ****** ****** ****** ****** ****** ****** ****** ******
   6  ****** ****** ****** ****** ****** ****** ****** ****** ****** ******
      ****** ****** ****** ****** ****** ****** ****** ****** ****** ******
      ****** ****** ****** ****** ****** ****** ****** ****** ****** ******
   7  ****** ****** ****** ****** ****** ****** ****** ****** ****** ******
      ****** ****** ****** ****** ****** ****** ****** ****** ****** ******
      ****** ****** ****** ****** ****** ****** ****** ****** ****** ******
   8  ****** ****** ****** ****** ****** ****** ****** ****** ****** ******
      ****** ****** ****** ****** ****** ****** ****** ****** ****** ******
      ****** ****** ****** ****** ****** ****** ****** ****** ****** ******
   9  ****** ****** ****** ****** ****** ****** ****** ****** ****** ******
      ****** ****** ****** ****** ****** ****** ****** ****** ****** ******
      ****** ****** ****** ****** ****** ****** ****** ****** ****** ******
  10  ****** ****** ****** ****** ****** ****** ****** ****** ****** ******
      ****** ****** ****** ****** ****** ****** ****** ****** ****** ******
      ****** ****** ****** ****** ****** ****** ****** ****** ****** ******
  11  ****** ****** ****** ****** ****** ****** ****** ****** ****** ******
      ****** ****** ****** ****** ****** ****** ****** ****** ****** ******
      ****** ****** ****** ****** ****** ****** ****** ****** ****** ******
  12  ****** ****** ****** ****** ****** ****** ****** ****** ****** ******
      ****** ****** ****** ****** ****** ****** ****** ****** ****** ******
      ****** ****** ****** ****** ****** ****** ****** ****** ****** ******
  13  ****** ****** ****** ****** ****** ****** ****** ****** ****** ******
      ****** ****** ****** ****** ****** ****** ****** ****** ****** ******
      ****** ****** ****** ****** ****** ****** ****** ****** ****** ******
  14  ****** ****** ****** ****** ****** ****** ****** ****** ****** ******
      ****** ****** ****** ****** ****** ****** ****** ****** ****** ******
      ****** ****** ****** ****** ****** ****** ****** ****** ****** ******
  15  ****** ****** ****** ****** ****** ****** ****** ****** ****** ******
      ****** ****** ****** ****** ****** ****** ****** ****** ****** ******
      ****** ****** ****** ****** ****** ****** ****** ****** ****** ******
  16  ****** ****** ****** ****** ****** ****** ****** ****** ****** ******
      ****** ****** ****** ****** ****** ****** ****** ****** ****** ******
      ****** ****** ****** ****** ****** ****** ****** ****** ****** ******
  17  ****** ****** ****** ****** ****** ****** ****** ****** ****** ******
      ****** ****** ****** ****** ****** ****** ****** ****** ****** ******
      ****** ****** ****** ****** ****** ****** ****** ****** ****** ******
  18  ****** ****** ****** ****** ****** ****** ****** ****** ****** ******
      ****** ****** ****** ****** ****** ****** ****** ****** ****** ******
      ****** ****** ****** ****** ****** ****** ****** ****** ****** ******
  19  ****** ****** ****** ****** ****** ****** ****** ****** ****** ******
      ****** ****** ****** ****** ****** ****** ****** ****** ****** ******
      ****** ****** ****** ****** ****** ****** ****** ****** ****** ******
  20  ****** ****** ****** ****** ****** ****** ****** ****** ****** ******
      ****** ****** ****** ****** ****** ****** ****** ****** ****** ******
      ****** ****** ****** ****** ****** ****** ****** ****** ****** ******
  21  ****** ****** ****** ****** ****** ****** ****** ****** ****** ******
      ****** ****** ****** ****** ****** ****** ****** ****** ****** ******
      ****** ****** ****** ****** ****** ****** ****** ****** ****** ******
  22  ****** ****** ****** ****** ****** ****** ****** ****** ****** ******
      ****** ****** ****** ****** ****** ****** ****** ****** ****** ******
      ****** ****** ****** ****** ****** ****** ****** ****** ****** ******
  23  ****** ****** ****** ****** ****** ****** ****** ****** ****** ******
      ****** ****** ****** ****** ****** ****** ****** ****** ****** ******
      ****** ****** ****** ****** ****** ****** ****** ****** ****** ******
  24  ****** ****** ****** ****** ****** ****** ****** ****** ****** ******
      ****** ****** ****** ****** ****** ****** ****** ****** ****** ******
      ****** ****** ****** ****** ****** ****** ****** ****** ****** ******
  25  ****** ****** ****** ****** ****** ****** ****** ****** ****** ******
      ****** ****** ****** ****** ****** ****** ****** ****** ****** ******
      ****** ****** ****** ****** ****** ****** ****** ****** ****** ******

 HEAD WILL BE SAVED ON UNIT   51 AT END OF TIME STEP    1, STRESS PERIOD   11
1
  VOLUMETRIC BUDGET FOR ENTIRE MODEL AT END OF TIME STEP    1, STRESS PERIOD  11
  ------------------------------------------------------------------------------

     CUMULATIVE VOLUMES      L**3       RATES FOR THIS TIME STEP      L**3/T
     ------------------                 ------------------------

           IN:                                      IN:
           ---                                      ---
             STORAGE =    35632403.8670               STORAGE =       17860.6357
       CONSTANT HEAD =    28463073.4119         CONSTANT HEAD =       34603.0825
               WELLS =           0.0000                 WELLS =           0.0000
            RECHARGE =    23901600.0000              RECHARGE =           0.0000
      STREAM LEAKAGE =    13966500.3865        STREAM LEAKAGE =       17865.0246

            TOTAL IN =   101963577.6654              TOTAL IN =       70328.7428

          OUT:                                     OUT:
          ----                                     ----
             STORAGE =     2388573.5772               STORAGE =           0.0000
       CONSTANT HEAD =           0.0000         CONSTANT HEAD =           0.0000
               WELLS =    39138970.6015                 WELLS =       38983.0384
            RECHARGE =           0.0000              RECHARGE =           0.0000
      STREAM LEAKAGE =    60436035.4290        STREAM LEAKAGE =       31345.7091

           TOTAL OUT =   101963579.6078             TOTAL OUT =       70328.7476

            IN - OUT =          -1.9424              IN - OUT =      -4.7829E-03

 PERCENT DISCREPANCY =          -0.00     PERCENT DISCREPANCY =          -0.00






         TIME SUMMARY AT END OF TIME STEP    1 IN STRESS PERIOD   11
                    SECONDS     MINUTES      HOURS       DAYS        YEARS
                    -----------------------------------------------------------
   TIME STEP LENGTH 7.86240E+06 1.31040E+05  2184.0      91.000     0.24914    
 STRESS PERIOD TIME 7.86240E+06 1.31040E+05  2184.0      91.000     0.24914    
         TOTAL TIME 8.67456E+07 1.44576E+06  24096.      1004.0      2.7488    
1
1
                            STRESS PERIOD NO.   12, LENGTH =   91.00000    
                            -----------------------------------------------

                              NUMBER OF TIME STEPS =     1

                               MULTIPLIER FOR DELT =     1.500

                            INITIAL TIME STEP SIZE =   91.00000    

 WELL NO.  LAYER   ROW   COL   STRESS RATE         
 --------------------------------------------------
      1      1     18     15      -8387.    
      2      1     17     18      -8258.    
      3      1     14     29      -8048.    
      4      1     19     28     -0.1429E+05

      4 WELLS

                 RECHARGE =  1.000000E-03

 REUSING STREAM SEGMENT DATA FROM LAST STRESS PERIOD
 
 SOLVING FOR HEAD 


     7 CALLS TO PCG ROUTINE FOR TIME STEP   1 IN STRESS PERIOD   12
    24 TOTAL ITERATIONS

 OUTPUT CONTROL FOR STRESS PERIOD   12   TIME STEP    1
    SAVE BUDGET
    SAVE HEAD FOR ALL LAYERS
    PRINT HEAD FOR ALL LAYERS
 UBDSV2 SAVING "STREAMFLOW OUT  " ON UNIT  50 AT TIME STEP  1, STRESS PERIOD  12



 STREAM LISTING     PERIOD     12   STEP        1

 LAYER ROW COL. STREAM  RCH.  FLOW INTO     FLOW TO   FLOW OUT OF   OVRLND.     DIRECT     STREAM       STREAM     STREAM     STREAM   STREAMBED  STREAMBED
                SEG.NO.  NO.  STRM. RCH.    AQUIFER    STRM. RCH.    RUNOFF     PRECIP       ET          HEAD       DEPTH      WIDTH   CONDCTNC.   GRADIENT

   1   13    1     1     1    1.0000E+05 -1.6973E+03   1.0170E+05  0.000E+00  0.000E+00  0.000E+00  4.84068E+01  1.454E-01  2.000E+01  2.000E+04 -8.487E-02
   1   13    2     1     2    1.0170E+05 -2.6437E+03   1.0434E+05  0.000E+00  0.000E+00  0.000E+00  4.79313E+01  1.473E-01  2.000E+01  2.000E+04 -1.322E-01
   1   14    3     1     3    1.0434E+05 -4.3496E+02   1.0478E+05  0.000E+00  0.000E+00  0.000E+00  4.74554E+01  1.486E-01  2.000E+01  2.000E+04 -2.175E-02
   1   15    4     1     4    1.0478E+05 -4.0110E+02   1.0518E+05  0.000E+00  0.000E+00  0.000E+00  4.69785E+01  1.489E-01  2.000E+01  2.000E+04 -2.006E-02
   1   16    5     1     5    1.0518E+05 -1.4058E+03   1.0658E+05  0.000E+00  0.000E+00  0.000E+00  4.65020E+01  1.497E-01  2.000E+01  2.000E+04 -7.029E-02
   1   16    6     1     6    1.0658E+05 -8.7390E+02   1.0746E+05  0.000E+00  0.000E+00  0.000E+00  4.60257E+01  1.507E-01  2.000E+01  2.000E+04 -4.370E-02
   1   16    7     1     7    1.0746E+05 -8.2571E+02   1.0828E+05  0.000E+00  0.000E+00  0.000E+00  4.55491E+01  1.514E-01  2.000E+01  2.000E+04 -4.129E-02
   1   16    8     1     8    1.0828E+05 -7.7217E+02   1.0905E+05  0.000E+00  0.000E+00  0.000E+00  4.50725E+01  1.521E-01  2.000E+01  2.000E+04 -3.861E-02
   1   16    9     1     9    1.0905E+05 -6.8964E+02   1.0974E+05  0.000E+00  0.000E+00  0.000E+00  4.45958E+01  1.527E-01  2.000E+01  2.000E+04 -3.448E-02
   1   16   10     1    10    1.0974E+05 -5.6016E+02   1.1030E+05  0.000E+00  0.000E+00  0.000E+00  4.41191E+01  1.532E-01  2.000E+01  2.000E+04 -2.801E-02
   1   16   11     1    11    1.1030E+05 -3.4658E+02   1.1065E+05  0.000E+00  0.000E+00  0.000E+00  4.36422E+01  1.536E-01  2.000E+01  2.000E+04 -1.733E-02
   1   16   12     1    12    1.1065E+05  1.1382E+02   1.1054E+05  0.000E+00  0.000E+00  0.000E+00  4.31650E+01  1.537E-01  2.000E+01  2.000E+04  5.691E-03
   1   15   13     1    13    1.1054E+05  4.1943E+01   1.1050E+05  0.000E+00  0.000E+00  0.000E+00  4.26877E+01  1.536E-01  2.000E+01  2.000E+04  2.097E-03
   1   14   14     1    14    1.1050E+05 -4.7171E+02   1.1097E+05  0.000E+00  0.000E+00  0.000E+00  4.22106E+01  1.538E-01  2.000E+01  2.000E+04 -2.359E-02
   1   13   15     1    15    1.1097E+05 -1.1736E+03   1.1214E+05  0.000E+00  0.000E+00  0.000E+00  4.17340E+01  1.545E-01  2.000E+01  2.000E+04 -5.868E-02
   1   12   16     1    16    1.1214E+05 -2.4323E+03   1.1457E+05  0.000E+00  0.000E+00  0.000E+00  4.12582E+01  1.560E-01  2.000E+01  2.000E+04 -1.216E-01
   1   12   17     1    17    1.1457E+05 -1.3177E+03   1.1589E+05  0.000E+00  0.000E+00  0.000E+00  4.07825E+01  1.575E-01  2.000E+01  2.000E+04 -6.589E-02
   1   12   18     1    18    1.1589E+05 -1.2356E+03   1.1713E+05  0.000E+00  0.000E+00  0.000E+00  4.03063E+01  1.585E-01  2.000E+01  2.000E+04 -6.178E-02
   1   12   19     1    19    1.1713E+05 -1.9429E+03   1.1907E+05  0.000E+00  0.000E+00  0.000E+00  3.98303E+01  1.598E-01  2.000E+01  2.000E+04 -9.715E-02
   1   13   20     1    20    1.1907E+05 -7.1223E+02   1.1978E+05  0.000E+00  0.000E+00  0.000E+00  3.93541E+01  1.609E-01  2.000E+01  2.000E+04 -3.561E-02
   1   14   21     1    21    1.1978E+05  1.1934E+02   1.1966E+05  0.000E+00  0.000E+00  0.000E+00  3.88771E+01  1.611E-01  2.000E+01  2.000E+04  5.967E-03
   1   14   22     1    22    1.1966E+05  5.1212E+03   1.1454E+05  0.000E+00  0.000E+00  0.000E+00  3.83977E+01  1.590E-01  2.000E+01  2.000E+04  2.561E-01
   1    9   30     2     1    5.0000E+04  5.6584E+01   4.9943E+04  0.000E+00  0.000E+00  0.000E+00  4.02408E+01  1.158E-01  2.000E+01  2.000E+04  2.829E-03
   1    9   29     2     2    4.9943E+04 -3.0229E+02   5.0246E+04  0.000E+00  0.000E+00  0.000E+00  3.99910E+01  1.160E-01  2.000E+01  2.000E+04 -1.511E-02
   1    9   28     2     3    5.0246E+04 -6.9054E+02   5.0936E+04  0.000E+00  0.000E+00  0.000E+00  3.97417E+01  1.167E-01  2.000E+01  2.000E+04 -3.453E-02
   1    9   27     2     4    5.0936E+04 -2.1466E+03   5.3083E+04  0.000E+00  0.000E+00  0.000E+00  3.94936E+01  1.186E-01  2.000E+01  2.000E+04 -1.073E-01
   1   10   26     2     5    5.3083E+04 -1.0695E+03   5.4152E+04  0.000E+00  0.000E+00  0.000E+00  3.92458E+01  1.208E-01  2.000E+01  2.000E+04 -5.347E-02
   1   11   25     2     6    5.4152E+04 -9.8555E+02   5.5138E+04  0.000E+00  0.000E+00  0.000E+00  3.89972E+01  1.222E-01  2.000E+01  2.000E+04 -4.928E-02
   1   12   24     2     7    5.5138E+04 -1.3443E+03   5.6482E+04  0.000E+00  0.000E+00  0.000E+00  3.87488E+01  1.238E-01  2.000E+01  2.000E+04 -6.721E-02
   1   13   23     2     8    5.6482E+04 -2.5323E+02   5.6735E+04  0.000E+00  0.000E+00  0.000E+00  3.84998E+01  1.248E-01  2.000E+01  2.000E+04 -1.266E-02
   1   14   22     2     9    5.6735E+04  2.1395E+03   5.4596E+04  0.000E+00  0.000E+00  0.000E+00  3.82486E+01  1.236E-01  2.000E+01  2.000E+04  1.070E-01
   1   14   22     3     1    1.6914E+05 -8.3816E+03   1.7752E+05  0.000E+00  0.000E+00  0.000E+00  3.77225E+01  1.670E-01  2.000E+01  2.000E+04 -4.191E-01
   1   15   23     3     2    1.7752E+05 -2.3294E+02   1.7775E+05  0.000E+00  0.000E+00  0.000E+00  3.68361E+01  1.694E-01  2.000E+01  2.000E+04 -1.165E-02
   1   15   24     3     3    1.7775E+05 -1.6465E+02   1.7792E+05  0.000E+00  0.000E+00  0.000E+00  3.59473E+01  1.696E-01  2.000E+01  2.000E+04 -8.233E-03
   1   15   25     3     4    1.7792E+05 -1.5281E+02   1.7807E+05  0.000E+00  0.000E+00  0.000E+00  3.50585E+01  1.696E-01  2.000E+01  2.000E+04 -7.640E-03
   1   15   26     3     5    1.7807E+05 -2.5612E+01   1.7809E+05  0.000E+00  0.000E+00  0.000E+00  3.41697E+01  1.697E-01  2.000E+01  2.000E+04 -1.281E-03
   1   16   27     3     6    1.7809E+05  2.3948E+02   1.7785E+05  0.000E+00  0.000E+00  0.000E+00  3.32807E+01  1.696E-01  2.000E+01  2.000E+04  1.197E-02
   1   17   28     3     7    1.7785E+05  3.6755E+03   1.7418E+05  0.000E+00  0.000E+00  0.000E+00  3.23907E+01  1.685E-01  2.000E+01  2.000E+04  1.838E-01
   1   18   29     3     8    1.7418E+05  4.3831E+03   1.6980E+05  0.000E+00  0.000E+00  0.000E+00  3.14995E+01  1.662E-01  2.000E+01  2.000E+04  2.192E-01
   1   18   30     3     9    1.6980E+05  3.3786E+02   1.6946E+05  0.000E+00  0.000E+00  0.000E+00  3.06093E+01  1.648E-01  2.000E+01  2.000E+04  1.689E-02



1
              HEAD IN LAYER   1 AT END OF TIME STEP   1 IN STRESS PERIOD   12
  ---------------------------------------------------------------------------

          1      2      3      4      5      6      7      8      9     10
         11     12     13     14     15     16     17     18     19     20
         21     22     23     24     25     26     27     28     29     30
 .........................................................................
   1  ****** ****** ****** ****** ****** ****** ****** ****** ****** ******
      ****** ****** ****** ****** ****** ****** ****** ****** ****** ******
      ****** ****** ****** ****** ****** ****** ****** ****** ****** ******
   2  ****** ****** ****** ****** ****** ****** ****** ****** ****** ******
      ****** ****** ****** ****** ****** ****** ****** ****** ****** ******
      ****** ****** ****** ****** ****** ****** ****** ****** ****** ******
   3  ****** ****** ****** ****** ****** ****** ****** ****** ****** ******
      ****** ****** ****** ****** ****** ****** ****** ****** ****** ******
      ****** ****** ****** ****** ****** ****** ****** ****** ****** ******
   4  ****** ****** ****** ****** ****** ****** ****** ****** ****** ******
      ****** ****** ****** ****** ****** ****** ****** ****** ****** ******
      ****** ****** ****** ****** ****** ****** ****** ****** ****** ******
   5  ****** ****** ****** ****** ****** ****** ****** ****** ****** ******
      ****** ****** ****** ****** ****** ****** ****** ****** ****** ******
      ****** ****** ****** ****** ****** ****** ****** ****** ****** ******
   6  ****** ****** ****** ****** ****** ****** ****** ****** ****** ******
      ****** ****** ****** ****** ****** ****** ****** ****** ****** ******
      ****** ****** ****** ****** ****** ****** ****** ****** ****** ******
   7  ****** ****** ****** ****** ****** ****** ****** ****** ****** ******
      ****** ****** ****** ****** ****** ****** ****** ****** ****** ******
      ****** ****** ****** ****** ****** ****** ****** ****** ****** ******
   8  ****** ****** ****** ****** ****** ****** ****** ****** ****** ******
      ****** ****** ****** ****** ****** ****** ****** ****** ****** ******
      ****** ****** ****** ****** ****** ****** ****** ****** ****** ******
   9  ****** ****** ****** ****** ****** ****** ****** ****** ****** ******
      ****** ****** ****** ****** ****** ****** ****** ****** ****** ******
      ****** ****** ****** ****** ****** ****** ****** ****** ****** ******
  10  ****** ****** ****** ****** ****** ****** ****** ****** ****** ******
      ****** ****** ****** ****** ****** ****** ****** ****** ****** ******
      ****** ****** ****** ****** ****** ****** ****** ****** ****** ******
  11  ****** ****** ****** ****** ****** ****** ****** ****** ****** ******
      ****** ****** ****** ****** ****** ****** ****** ****** ****** ******
      ****** ****** ****** ****** ****** ****** ****** ****** ****** ******
  12  ****** ****** ****** ****** ****** ****** ****** ****** ****** ******
      ****** ****** ****** ****** ****** ****** ****** ****** ****** ******
      ****** ****** ****** ****** ****** ****** ****** ****** ****** ******
  13  ****** ****** ****** ****** ****** ****** ****** ****** ****** ******
      ****** ****** ****** ****** ****** ****** ****** ****** ****** ******
      ****** ****** ****** ****** ****** ****** ****** ****** ****** ******
  14  ****** ****** ****** ****** ****** ****** ****** ****** ****** ******
      ****** ****** ****** ****** ****** ****** ****** ****** ****** ******
      ****** ****** ****** ****** ****** ****** ****** ****** ****** ******
  15  ****** ****** ****** ****** ****** ****** ****** ****** ****** ******
      ****** ****** ****** ****** ****** ****** ****** ****** ****** ******
      ****** ****** ****** ****** ****** ****** ****** ****** ****** ******
  16  ****** ****** ****** ****** ****** ****** ****** ****** ****** ******
      ****** ****** ****** ****** ****** ****** ****** ****** ****** ******
      ****** ****** ****** ****** ****** ****** ****** ****** ****** ******
  17  ****** ****** ****** ****** ****** ****** ****** ****** ****** ******
      ****** ****** ****** ****** ****** ****** ****** ****** ****** ******
      ****** ****** ****** ****** ****** ****** ****** ****** ****** ******
  18  ****** ****** ****** ****** ****** ****** ****** ****** ****** ******
      ****** ****** ****** ****** ****** ****** ****** ****** ****** ******
      ****** ****** ****** ****** ****** ****** ****** ****** ****** ******
  19  ****** ****** ****** ****** ****** ****** ****** ****** ****** ******
      ****** ****** ****** ****** ****** ****** ****** ****** ****** ******
      ****** ****** ****** ****** ****** ****** ****** ****** ****** ******
  20  ****** ****** ****** ****** ****** ****** ****** ****** ****** ******
      ****** ****** ****** ****** ****** ****** ****** ****** ****** ******
      ****** ****** ****** ****** ****** ****** ****** ****** ****** ******
  21  ****** ****** ****** ****** ****** ****** ****** ****** ****** ******
      ****** ****** ****** ****** ****** ****** ****** ****** ****** ******
      ****** ****** ****** ****** ****** ****** ****** ****** ****** ******
  22  ****** ****** ****** ****** ****** ****** ****** ****** ****** ******
      ****** ****** ****** ****** ****** ****** ****** ****** ****** ******
      ****** ****** ****** ****** ****** ****** ****** ****** ****** ******
  23  ****** ****** ****** ****** ****** ****** ****** ****** ****** ******
      ****** ****** ****** ****** ****** ****** ****** ****** ****** ******
      ****** ****** ****** ****** ****** ****** ****** ****** ****** ******
  24  ****** ****** ****** ****** ****** ****** ****** ****** ****** ******
      ****** ****** ****** ****** ****** ****** ****** ****** ****** ******
      ****** ****** ****** ****** ****** ****** ****** ****** ****** ******
  25  ****** ****** ****** ****** ****** ****** ****** ****** ****** ******
      ****** ****** ****** ****** ****** ****** ****** ****** ****** ******
      ****** ****** ****** ****** ****** ****** ****** ****** ****** ******

 HEAD WILL BE SAVED ON UNIT   51 AT END OF TIME STEP    1, STRESS PERIOD   12
1
  VOLUMETRIC BUDGET FOR ENTIRE MODEL AT END OF TIME STEP    1, STRESS PERIOD  12
  ------------------------------------------------------------------------------

     CUMULATIVE VOLUMES      L**3       RATES FOR THIS TIME STEP      L**3/T
     ------------------                 ------------------------

           IN:                                      IN:
           ---                                      ---
             STORAGE =    35632845.0373               STORAGE =           4.8480
       CONSTANT HEAD =    31548072.1558         CONSTANT HEAD =       33901.0851
               WELLS =           0.0000                 WELLS =           0.0000
            RECHARGE =    26413200.0000              RECHARGE =       27600.0000
      STREAM LEAKAGE =    15443276.2035        STREAM LEAKAGE =       16228.3057

            TOTAL IN =   109037393.3967              TOTAL IN =       77734.2388

          OUT:                                     OUT:
          ----                                     ----
             STORAGE =     2667446.7074               STORAGE =        3064.5399
       CONSTANT HEAD =           0.0000         CONSTANT HEAD =           0.0000
               WELLS =    42686427.1003                 WELLS =       38983.0384
            RECHARGE =           0.0000              RECHARGE =           0.0000
      STREAM LEAKAGE =    63683521.4437        STREAM LEAKAGE =       35686.6595

           TOTAL OUT =   109037395.2514             TOTAL OUT =       77734.2378

            IN - OUT =          -1.8547              IN - OUT =       9.6318E-04

 PERCENT DISCREPANCY =          -0.00     PERCENT DISCREPANCY =           0.00






         TIME SUMMARY AT END OF TIME STEP    1 IN STRESS PERIOD   12
                    SECONDS     MINUTES      HOURS       DAYS        YEARS
                    -----------------------------------------------------------
   TIME STEP LENGTH 7.86240E+06 1.31040E+05  2184.0      91.000     0.24914    
 STRESS PERIOD TIME 7.86240E+06 1.31040E+05  2184.0      91.000     0.24914    
         TOTAL TIME 9.46080E+07 1.57680E+06  26280.      1095.0      2.9979    
1

 Run end date and time (yyyy/mm/dd hh:mm:ss): 2018/10/14 14:55:16
 Elapsed run time:  0.083 Seconds

