                                  MODFLOW-2005     
      U.S. GEOLOGICAL SURVEY MODULAR FINITE-DIFFERENCE GROUND-WATER FLOW MODEL
                            VERSION 1.11.00 8/8/2013

 LIST FILE: supply2.lst
                         UNIT   10

 OPENING ..\data\supply.dis
 FILE TYPE:DIS   UNIT   11   STATUS:OLD    
 FORMAT:FORMATTED              ACCESS:SEQUENTIAL          

 OPENING ..\data\supply.ba6
 FILE TYPE:BAS6   UNIT   12   STATUS:OLD    
 FORMAT:FORMATTED              ACCESS:SEQUENTIAL          

 OPENING ..\data\supply_het.bc6
 FILE TYPE:BCF6   UNIT   13   STATUS:OLD    
 FORMAT:FORMATTED              ACCESS:SEQUENTIAL          

 OPENING ..\data\supply.rch
 FILE TYPE:RCH   UNIT   15   STATUS:OLD    
 FORMAT:FORMATTED              ACCESS:SEQUENTIAL          

 OPENING ..\data\supply2.sfr
 FILE TYPE:SFR   UNIT   16   STATUS:OLD    
 FORMAT:FORMATTED              ACCESS:SEQUENTIAL          

 OPENING ..\data\supply.oc
 FILE TYPE:OC   UNIT   17   STATUS:OLD    
 FORMAT:FORMATTED              ACCESS:SEQUENTIAL          

 OPENING ..\data\supply.pcg
 FILE TYPE:PCG   UNIT   18   STATUS:OLD    
 FORMAT:FORMATTED              ACCESS:SEQUENTIAL          

 OPENING supply2.wel
 FILE TYPE:WEL   UNIT   19   STATUS:OLD    
 FORMAT:FORMATTED              ACCESS:SEQUENTIAL          

 OPENING supply2sf.cbc
 FILE TYPE:DATA(BINARY)   UNIT   50   STATUS:UNKNOWN
 FORMAT:BINARY                 ACCESS:SEQUENTIAL          

 OPENING supply2hd.bhd
 FILE TYPE:DATA(BINARY)   UNIT   51   STATUS:UNKNOWN
 FORMAT:BINARY                 ACCESS:SEQUENTIAL          

 BAS -- BASIC PACKAGE, VERSION 7, 5/2/2005 INPUT READ FROM UNIT   12
 
 MODFLOW was compiled using uniform precision
 Precision of REAL and DOUBLE PRECISION variables:          15

 DISCRETIZATION INPUT DATA READ FROM UNIT   11
    1 LAYERS        25 ROWS        30 COLUMNS
   12 STRESS PERIOD(S) IN SIMULATION
 MODEL TIME UNIT IS DAYS
 MODEL LENGTH UNIT IS UNDEFINED
  Confining bed flag for each layer:
   0

                     DELR =   200.000    

                     DELC =   200.000    

 TOP ELEVATION OF LAYER 1 =  100.0000    

   MODEL LAYER BOTTOM EL. =   0.00000     FOR LAYER   1


 STRESS PERIOD     LENGTH       TIME STEPS     MULTIPLIER FOR DELT    SS FLAG
 ----------------------------------------------------------------------------
        1         92.00000          1                    1.500         TR
        2         91.00000          1                    1.500         TR
        3         91.00000          1                    1.500         TR
        4         91.00000          1                    1.500         TR
        5         92.00000          1                    1.500         TR
        6         91.00000          1                    1.500         TR
        7         91.00000          1                    1.500         TR
        8         91.00000          1                    1.500         TR
        9         92.00000          1                    1.500         TR
       10         91.00000          1                    1.500         TR
       11         91.00000          1                    1.500         TR
       12         91.00000          1                    1.500         TR

 TRANSIENT SIMULATION



 
 #MODOFC transient water supply sample problem                                   
 #                                                                               
 THE FREE FORMAT OPTION HAS BEEN SELECTED



                     BOUNDARY ARRAY FOR LAYER   1
 READING ON UNIT   12 WITH FORMAT: (20I4)              

 AQUIFER HEAD WILL BE SET TO   0.0000     AT ALL NO-FLOW NODES (IBOUND=0).



                       INITIAL HEAD FOR LAYER   1
 READING ON UNIT   12 WITH FORMAT: (10F13.0)           

 OUTPUT CONTROL IS SPECIFIED ONLY AT TIME STEPS FOR WHICH OUTPUT IS DESIRED
 COMPACT CELL-BY-CELL BUDGET FILES WILL BE WRITTEN
 HEAD PRINT FORMAT CODE IS  18    DRAWDOWN PRINT FORMAT CODE IS   0
 HEADS WILL BE SAVED ON UNIT   51    DRAWDOWNS WILL BE SAVED ON UNIT    0

 BCF -- BLOCK-CENTERED FLOW PACKAGE, VERSION 7, 5/2/2005
         INPUT READ FROM UNIT 13
 TRANSIENT SIMULATION
 HEAD AT CELLS THAT CONVERT TO DRY=   0.0000    
 WETTING CAPABILITY IS NOT ACTIVE
      LAYER  LAYER-TYPE CODE     INTERBLOCK T
      --------------------------------------------
         1            0          0 -- HARMONIC    

 COLUMN TO ROW ANISOTROPY =  1.000000    

     PRIMARY STORAGE COEF =  5.000000E-02 FOR LAYER   1



               TRANSMIS. ALONG ROWS FOR LAYER   1
 READING ON UNIT   13 WITH FORMAT: (FREE)              

 WEL -- WELL PACKAGE, VERSION 7, 5/2/2005 INPUT READ FROM UNIT   19
 # Well package input file written by MMProc
 No named parameters
 MAXIMUM OF      4 ACTIVE WELLS AT ONE TIME


     0 Well parameters

 RCH -- RECHARGE PACKAGE, VERSION 7, 5/2/2005 INPUT READ FROM UNIT   15
 No named parameters
 OPTION 1 -- RECHARGE TO TOP LAYER


     0 Recharge parameters

 SFR7 -- STREAMFLOW ROUTING PACKAGE, VERSION 1.0.7, 2013-01-15
         INPUT READ FROM UNIT  16
 #  Supply2 test problem for GWM-VI
 #  The eighth entry in the first data line is ISTCB2 -
 #    Setting this to a negative number indicates that
 #    streamflows out of the reach will be saved to a
 #    binary file.  The absolute value of ISTCB2 is the
 #    unit to which unformatted flows will be written.
 #
 No named parameters
 Segment information will not be 
 read by reach
 No named parameters
 No specifed inflow files


 NUMBER OF STREAM REACHES IS   40

 NUMBER OF STREAM SEGMENTS IS    3

 NUMBER OF STREAM PARAMETERS IS    0

 NUMBER OF STREAM SEGMENTS DEFINED USING PARAMETERS IS              0

 MAXIMUM ERROR FOR STREAM LEAKAGE RATES IS  1.00E-04

 CONSTANT FOR MANNINGS EQUATION IS  1.2839E+05





   STREAM NETWORK DESCRIPTION: 

   LAYER    ROW    COL   SEGMENT   REACH     LENGTH
                          NUMBER   NUMBER    IN CELL        
   --------------------------------------------------
      1     13      1       1        1    2.0000E+02
      1     13      2       1        2    2.0000E+02
      1     14      3       1        3    2.0000E+02
      1     15      4       1        4    2.0000E+02
      1     16      5       1        5    2.0000E+02
      1     16      6       1        6    2.0000E+02
      1     16      7       1        7    2.0000E+02
      1     16      8       1        8    2.0000E+02
      1     16      9       1        9    2.0000E+02
      1     16     10       1       10    2.0000E+02
      1     16     11       1       11    2.0000E+02
      1     16     12       1       12    2.0000E+02
      1     15     13       1       13    2.0000E+02
      1     14     14       1       14    2.0000E+02
      1     13     15       1       15    2.0000E+02
      1     12     16       1       16    2.0000E+02
      1     12     17       1       17    2.0000E+02
      1     12     18       1       18    2.0000E+02
      1     12     19       1       19    2.0000E+02
      1     13     20       1       20    2.0000E+02
      1     14     21       1       21    2.0000E+02
      1     14     22       1       22    2.0000E+02
      1      9     30       2        1    2.0000E+02
      1      9     29       2        2    2.0000E+02
      1      9     28       2        3    2.0000E+02
      1      9     27       2        4    2.0000E+02
      1     10     26       2        5    2.0000E+02
      1     11     25       2        6    2.0000E+02
      1     12     24       2        7    2.0000E+02
      1     13     23       2        8    2.0000E+02
      1     14     22       2        9    2.0000E+02
      1     14     22       3        1    2.0000E+02
      1     15     23       3        2    2.0000E+02
      1     15     24       3        3    2.0000E+02
      1     15     25       3        4    2.0000E+02
      1     15     26       3        5    2.0000E+02
      1     16     27       3        6    2.0000E+02
      1     17     28       3        7    2.0000E+02
      1     18     29       3        8    2.0000E+02
      1     18     30       3        9    2.0000E+02




 PCG -- CONJUGATE-GRADIENT SOLUTION PACKAGE, VERSION 7, 5/2/2005
 MAXIMUM OF    500 CALLS OF SOLUTION ROUTINE
 MAXIMUM OF      5 INTERNAL ITERATIONS PER CALL TO SOLUTION ROUTINE
 MATRIX PRECONDITIONING TYPE :    1



                                    SOLUTION BY THE CONJUGATE-GRADIENT METHOD
                                   -------------------------------------------
                    MAXIMUM NUMBER OF CALLS TO PCG ROUTINE =      500
                        MAXIMUM ITERATIONS PER CALL TO PCG =        5
                               MATRIX PRECONDITIONING TYPE =        1
        RELAXATION FACTOR (ONLY USED WITH PRECOND. TYPE 1) =    0.10000E+01
 PARAMETER OF POLYNOMIAL PRECOND. = 2 (2) OR IS CALCULATED :        0
                         HEAD CHANGE CRITERION FOR CLOSURE =    0.10000E-05
                     RESIDUAL CHANGE CRITERION FOR CLOSURE =    0.10000E+01
            PCG HEAD AND RESIDUAL CHANGE PRINTOUT INTERVAL =        1
     PRINTING FROM SOLVER IS LIMITED(1) OR SUPPRESSED (>1) =        1
                            STEADY-STATE DAMPING PARAMETER =    0.10000E+01
                               TRANSIENT DAMPING PARAMETER =    0.10000E+01
1
                            STRESS PERIOD NO.    1, LENGTH =   92.00000    
                            -----------------------------------------------

                              NUMBER OF TIME STEPS =     1

                               MULTIPLIER FOR DELT =     1.500

                            INITIAL TIME STEP SIZE =   92.00000    

 WELL NO.  LAYER   ROW   COL   STRESS RATE         
 --------------------------------------------------
      1      1     10     24     -0.1046E+05
      2      1      7      8      -7751.    
      3      1      5     20      -7335.    
      4      1     11     21     -0.1462E+05

      4 WELLS

                 RECHARGE =  5.000000E-04



 CLASSIFICATION & COUNT OF STREAM SEGMENTS BASED ON SOURCE OF INFLOW:

                HEADWATER     DIVERSION     RECEIVES TRIBUTARY FLOW
                ---------     ---------     -----------------------
                     2              0               1



                    INPUT DATA FOR EACH STREAM SEGMENT
 ---------------------------------------------------------------------------------------------

 SEGMENT    SEG.     INFLOW   OVERLAND   STREAM    STREAM   ICALC  OUTFLOW  DIVERSION PRIORITY
    NO.    LENGTH     RATE     RUNOFF      ET       PPT.    METH.  TO SEG.  FROM SEG.    NO.

      1  4.400E+03 1.000E+05 0.000E+00 0.000E+00 0.000E+00    1        3        0        0
      2  1.800E+03 5.000E+04 0.000E+00 0.000E+00 0.000E+00    1        3        0        0
      3  1.800E+03 0.000E+00 0.000E+00 0.000E+00 0.000E+00    1        0        0        0


         STREAMBED PROPERTIES AND STREAM DIMENSIONS

 SEGMENT     BED HYD. COND.      BED THICKNESS     ELEV.-TOP OF BED     WIDTH OF STREAM     DEPTH OF STREAM    STREAM ROUGHNESS
    No.     UPPER     LOWER     UPPER     LOWER     UPPER     LOWER     UPPER     LOWER     UPPER     LOWER   CHANNEL      BANK

     1  5.000E+00 5.000E+00 1.000E+00 1.000E+00 4.850E+01 3.800E+01 2.000E+01 2.000E+01                     5.000E-02
     2  5.000E+00 5.000E+00 1.000E+00 1.000E+00 4.025E+01 3.800E+01 2.000E+01 2.000E+01                     5.000E-02
     3  5.000E+00 5.000E+00 1.000E+00 1.000E+00 3.800E+01 3.000E+01 2.000E+01 2.000E+01                     5.000E-02



 
 SOLVING FOR HEAD 


     9 CALLS TO PCG ROUTINE FOR TIME STEP   1 IN STRESS PERIOD    1
    36 TOTAL ITERATIONS

 OUTPUT CONTROL FOR STRESS PERIOD    1   TIME STEP    1
    SAVE BUDGET
    SAVE HEAD FOR ALL LAYERS
    PRINT HEAD FOR ALL LAYERS
 UBDSV2 SAVING "STREAMFLOW OUT  " ON UNIT  50 AT TIME STEP  1, STRESS PERIOD   1



 STREAM LISTING     PERIOD      1   STEP        1

 LAYER ROW COL. STREAM  RCH.  FLOW INTO     FLOW TO   FLOW OUT OF   OVRLND.     DIRECT     STREAM       STREAM     STREAM     STREAM   STREAMBED  STREAMBED
                SEG.NO.  NO.  STRM. RCH.    AQUIFER    STRM. RCH.    RUNOFF     PRECIP       ET          HEAD       DEPTH      WIDTH   CONDCTNC.   GRADIENT

   1   13    1     1     1    1.0000E+05 -6.0081E+03   1.0601E+05  0.000E+00  0.000E+00  0.000E+00  4.84086E+01  1.472E-01  2.000E+01  2.000E+04 -3.004E-01
   1   13    2     1     2    1.0601E+05 -7.4725E+03   1.1348E+05  0.000E+00  0.000E+00  0.000E+00  4.79370E+01  1.530E-01  2.000E+01  2.000E+04 -3.736E-01
   1   14    3     1     3    1.1348E+05 -2.1932E+03   1.1567E+05  0.000E+00  0.000E+00  0.000E+00  4.74638E+01  1.570E-01  2.000E+01  2.000E+04 -1.097E-01
   1   15    4     1     4    1.1567E+05 -2.2675E+03   1.1794E+05  0.000E+00  0.000E+00  0.000E+00  4.69883E+01  1.588E-01  2.000E+01  2.000E+04 -1.134E-01
   1   16    5     1     5    1.1794E+05 -7.1853E+03   1.2513E+05  0.000E+00  0.000E+00  0.000E+00  4.65149E+01  1.626E-01  2.000E+01  2.000E+04 -3.593E-01
   1   16    6     1     6    1.2513E+05 -4.3031E+03   1.2943E+05  0.000E+00  0.000E+00  0.000E+00  4.60422E+01  1.672E-01  2.000E+01  2.000E+04 -2.152E-01
   1   16    7     1     7    1.2943E+05 -4.1381E+03   1.3357E+05  0.000E+00  0.000E+00  0.000E+00  4.55682E+01  1.705E-01  2.000E+01  2.000E+04 -2.069E-01
   1   16    8     1     8    1.3357E+05 -4.0978E+03   1.3767E+05  0.000E+00  0.000E+00  0.000E+00  4.50941E+01  1.737E-01  2.000E+01  2.000E+04 -2.049E-01
   1   16    9     1     9    1.3767E+05 -4.0881E+03   1.4175E+05  0.000E+00  0.000E+00  0.000E+00  4.46200E+01  1.768E-01  2.000E+01  2.000E+04 -2.044E-01
   1   16   10     1    10    1.4175E+05 -4.0868E+03   1.4584E+05  0.000E+00  0.000E+00  0.000E+00  4.41458E+01  1.799E-01  2.000E+01  2.000E+04 -2.043E-01
   1   16   11     1    11    1.4584E+05 -4.1238E+03   1.4996E+05  0.000E+00  0.000E+00  0.000E+00  4.36716E+01  1.829E-01  2.000E+01  2.000E+04 -2.062E-01
   1   16   12     1    12    1.4996E+05 -6.9978E+03   1.5696E+05  0.000E+00  0.000E+00  0.000E+00  4.31984E+01  1.870E-01  2.000E+01  2.000E+04 -3.499E-01
   1   15   13     1    13    1.5696E+05 -7.2687E+03   1.6423E+05  0.000E+00  0.000E+00  0.000E+00  4.27263E+01  1.922E-01  2.000E+01  2.000E+04 -3.634E-01
   1   14   14     1    14    1.6423E+05 -7.7077E+03   1.7194E+05  0.000E+00  0.000E+00  0.000E+00  4.22544E+01  1.975E-01  2.000E+01  2.000E+04 -3.854E-01
   1   13   15     1    15    1.7194E+05 -7.9598E+03   1.7990E+05  0.000E+00  0.000E+00  0.000E+00  4.17826E+01  2.030E-01  2.000E+01  2.000E+04 -3.980E-01
   1   12   16     1    16    1.7990E+05 -8.3325E+03   1.8823E+05  0.000E+00  0.000E+00  0.000E+00  4.13109E+01  2.086E-01  2.000E+01  2.000E+04 -4.166E-01
   1   12   17     1    17    1.8823E+05 -5.7854E+03   1.9402E+05  0.000E+00  0.000E+00  0.000E+00  4.08384E+01  2.134E-01  2.000E+01  2.000E+04 -2.893E-01
   1   12   18     1    18    1.9402E+05 -5.3140E+03   1.9933E+05  0.000E+00  0.000E+00  0.000E+00  4.03648E+01  2.171E-01  2.000E+01  2.000E+04 -2.657E-01
   1   12   19     1    19    1.9933E+05 -4.8934E+03   2.0422E+05  0.000E+00  0.000E+00  0.000E+00  3.98909E+01  2.204E-01  2.000E+01  2.000E+04 -2.447E-01
   1   13   20     1    20    2.0422E+05 -4.4272E+03   2.0865E+05  0.000E+00  0.000E+00  0.000E+00  3.94166E+01  2.235E-01  2.000E+01  2.000E+04 -2.214E-01
   1   14   21     1    21    2.0865E+05 -5.4665E+03   2.1412E+05  0.000E+00  0.000E+00  0.000E+00  3.89426E+01  2.267E-01  2.000E+01  2.000E+04 -2.733E-01
   1   14   22     1    22    2.1412E+05  4.0616E+03   2.1006E+05  0.000E+00  0.000E+00  0.000E+00  3.84657E+01  2.271E-01  2.000E+01  2.000E+04  2.031E-01
   1    9   30     2     1    5.0000E+04 -4.7105E+03   5.4711E+04  0.000E+00  0.000E+00  0.000E+00  4.02441E+01  1.191E-01  2.000E+01  2.000E+04 -2.355E-01
   1    9   29     2     2    5.4711E+04 -4.9729E+03   5.9683E+04  0.000E+00  0.000E+00  0.000E+00  4.00006E+01  1.256E-01  2.000E+01  2.000E+04 -2.486E-01
   1    9   28     2     3    5.9683E+04 -5.1617E+03   6.4845E+04  0.000E+00  0.000E+00  0.000E+00  3.97572E+01  1.322E-01  2.000E+01  2.000E+04 -2.581E-01
   1    9   27     2     4    6.4845E+04 -7.2701E+03   7.2115E+04  0.000E+00  0.000E+00  0.000E+00  3.95149E+01  1.399E-01  2.000E+01  2.000E+04 -3.635E-01
   1   10   26     2     5    7.2115E+04 -5.0994E+03   7.7215E+04  0.000E+00  0.000E+00  0.000E+00  3.92724E+01  1.474E-01  2.000E+01  2.000E+04 -2.550E-01
   1   11   25     2     6    7.7215E+04 -3.3108E+03   8.0525E+04  0.000E+00  0.000E+00  0.000E+00  3.90273E+01  1.523E-01  2.000E+01  2.000E+04 -1.655E-01
   1   12   24     2     7    8.0525E+04 -2.9017E+03   8.3427E+04  0.000E+00  0.000E+00  0.000E+00  3.87809E+01  1.559E-01  2.000E+01  2.000E+04 -1.451E-01
   1   13   23     2     8    8.3427E+04 -1.1716E+03   8.4599E+04  0.000E+00  0.000E+00  0.000E+00  3.85332E+01  1.582E-01  2.000E+01  2.000E+04 -5.858E-02
   1   14   22     2     9    8.4599E+04  4.1898E+02   8.4180E+04  0.000E+00  0.000E+00  0.000E+00  3.82836E+01  1.586E-01  2.000E+01  2.000E+04  2.095E-02
   1   14   22     3     1    2.9424E+05 -9.5107E+03   3.0375E+05  0.000E+00  0.000E+00  0.000E+00  3.77871E+01  2.316E-01  2.000E+01  2.000E+04 -4.755E-01
   1   15   23     3     2    3.0375E+05 -1.9869E+03   3.0573E+05  0.000E+00  0.000E+00  0.000E+00  3.69009E+01  2.342E-01  2.000E+01  2.000E+04 -9.934E-02
   1   15   24     3     3    3.0573E+05 -1.5288E+03   3.0726E+05  0.000E+00  0.000E+00  0.000E+00  3.60128E+01  2.350E-01  2.000E+01  2.000E+04 -7.644E-02
   1   15   25     3     4    3.0726E+05 -1.5783E+03   3.0884E+05  0.000E+00  0.000E+00  0.000E+00  3.51247E+01  2.358E-01  2.000E+01  2.000E+04 -7.892E-02
   1   15   26     3     5    3.0884E+05 -1.8816E+03   3.1072E+05  0.000E+00  0.000E+00  0.000E+00  3.42366E+01  2.366E-01  2.000E+01  2.000E+04 -9.408E-02
   1   16   27     3     6    3.1072E+05 -2.1641E+03   3.1289E+05  0.000E+00  0.000E+00  0.000E+00  3.33486E+01  2.375E-01  2.000E+01  2.000E+04 -1.082E-01
   1   17   28     3     7    3.1289E+05 -6.5778E+03   3.1946E+05  0.000E+00  0.000E+00  0.000E+00  3.24617E+01  2.395E-01  2.000E+01  2.000E+04 -3.289E-01
   1   18   29     3     8    3.1946E+05 -7.9948E+03   3.2746E+05  0.000E+00  0.000E+00  0.000E+00  3.15761E+01  2.428E-01  2.000E+01  2.000E+04 -3.997E-01
   1   18   30     3     9    3.2746E+05 -7.1744E+03   3.3463E+05  0.000E+00  0.000E+00  0.000E+00  3.06906E+01  2.462E-01  2.000E+01  2.000E+04 -3.587E-01



1
              HEAD IN LAYER   1 AT END OF TIME STEP   1 IN STRESS PERIOD    1
  ---------------------------------------------------------------------------

          1      2      3      4      5      6      7      8      9     10
         11     12     13     14     15     16     17     18     19     20
         21     22     23     24     25     26     27     28     29     30
 .........................................................................
   1  ****** ****** ****** ****** ****** ****** ****** ****** ****** ******
      ****** ****** ****** ****** ****** ****** ****** ****** ****** ******
      ****** ****** ****** ****** ****** ****** ****** ****** ****** ******
   2  ****** ****** ****** ****** ****** ****** ****** ****** ****** ******
      ****** ****** ****** ****** ****** ****** ****** ****** ****** ******
      ****** ****** ****** ****** ****** ****** ****** ****** ****** ******
   3  ****** ****** ****** ****** ****** ****** ****** ****** ****** ******
      ****** ****** ****** ****** ****** ****** ****** ****** ****** ******
      ****** ****** ****** ****** ****** ****** ****** ****** ****** ******
   4  ****** ****** ****** ****** ****** ****** ****** ****** ****** ******
      ****** ****** ****** ****** ****** ****** ****** ****** ****** ******
      ****** ****** ****** ****** ****** ****** ****** ****** ****** ******
   5  ****** ****** ****** ****** ****** ****** ****** ****** ****** ******
      ****** ****** ****** ****** ****** ****** ****** ****** ****** ******
      ****** ****** ****** ****** ****** ****** ****** ****** ****** ******
   6  ****** ****** ****** ****** ****** ****** ****** ****** ****** ******
      ****** ****** ****** ****** ****** ****** ****** ****** ****** ******
      ****** ****** ****** ****** ****** ****** ****** ****** ****** ******
   7  ****** ****** ****** ****** ****** ****** ****** ****** ****** ******
      ****** ****** ****** ****** ****** ****** ****** ****** ****** ******
      ****** ****** ****** ****** ****** ****** ****** ****** ****** ******
   8  ****** ****** ****** ****** ****** ****** ****** ****** ****** ******
      ****** ****** ****** ****** ****** ****** ****** ****** ****** ******
      ****** ****** ****** ****** ****** ****** ****** ****** ****** ******
   9  ****** ****** ****** ****** ****** ****** ****** ****** ****** ******
      ****** ****** ****** ****** ****** ****** ****** ****** ****** ******
      ****** ****** ****** ****** ****** ****** ****** ****** ****** ******
  10  ****** ****** ****** ****** ****** ****** ****** ****** ****** ******
      ****** ****** ****** ****** ****** ****** ****** ****** ****** ******
      ****** ****** ****** ****** ****** ****** ****** ****** ****** ******
  11  ****** ****** ****** ****** ****** ****** ****** ****** ****** ******
      ****** ****** ****** ****** ****** ****** ****** ****** ****** ******
      ****** ****** ****** ****** ****** ****** ****** ****** ****** ******
  12  ****** ****** ****** ****** ****** ****** ****** ****** ****** ******
      ****** ****** ****** ****** ****** ****** ****** ****** ****** ******
      ****** ****** ****** ****** ****** ****** ****** ****** ****** ******
  13  ****** ****** ****** ****** ****** ****** ****** ****** ****** ******
      ****** ****** ****** ****** ****** ****** ****** ****** ****** ******
      ****** ****** ****** ****** ****** ****** ****** ****** ****** ******
  14  ****** ****** ****** ****** ****** ****** ****** ****** ****** ******
      ****** ****** ****** ****** ****** ****** ****** ****** ****** ******
      ****** ****** ****** ****** ****** ****** ****** ****** ****** ******
  15  ****** ****** ****** ****** ****** ****** ****** ****** ****** ******
      ****** ****** ****** ****** ****** ****** ****** ****** ****** ******
      ****** ****** ****** ****** ****** ****** ****** ****** ****** ******
  16  ****** ****** ****** ****** ****** ****** ****** ****** ****** ******
      ****** ****** ****** ****** ****** ****** ****** ****** ****** ******
      ****** ****** ****** ****** ****** ****** ****** ****** ****** ******
  17  ****** ****** ****** ****** ****** ****** ****** ****** ****** ******
      ****** ****** ****** ****** ****** ****** ****** ****** ****** ******
      ****** ****** ****** ****** ****** ****** ****** ****** ****** ******
  18  ****** ****** ****** ****** ****** ****** ****** ****** ****** ******
      ****** ****** ****** ****** ****** ****** ****** ****** ****** ******
      ****** ****** ****** ****** ****** ****** ****** ****** ****** ******
  19  ****** ****** ****** ****** ****** ****** ****** ****** ****** ******
      ****** ****** ****** ****** ****** ****** ****** ****** ****** ******
      ****** ****** ****** ****** ****** ****** ****** ****** ****** ******
  20  ****** ****** ****** ****** ****** ****** ****** ****** ****** ******
      ****** ****** ****** ****** ****** ****** ****** ****** ****** ******
      ****** ****** ****** ****** ****** ****** ****** ****** ****** ******
  21  ****** ****** ****** ****** ****** ****** ****** ****** ****** ******
      ****** ****** ****** ****** ****** ****** ****** ****** ****** ******
      ****** ****** ****** ****** ****** ****** ****** ****** ****** ******
  22  ****** ****** ****** ****** ****** ****** ****** ****** ****** ******
      ****** ****** ****** ****** ****** ****** ****** ****** ****** ******
      ****** ****** ****** ****** ****** ****** ****** ****** ****** ******
  23  ****** ****** ****** ****** ****** ****** ****** ****** ****** ******
      ****** ****** ****** ****** ****** ****** ****** ****** ****** ******
      ****** ****** ****** ****** ****** ****** ****** ****** ****** ******
  24  ****** ****** ****** ****** ****** ****** ****** ****** ****** ******
      ****** ****** ****** ****** ****** ****** ****** ****** ****** ******
      ****** ****** ****** ****** ****** ****** ****** ****** ****** ******
  25  ****** ****** ****** ****** ****** ****** ****** ****** ****** ******
      ****** ****** ****** ****** ****** ****** ****** ****** ****** ******
      ****** ****** ****** ****** ****** ****** ****** ****** ****** ******

 HEAD WILL BE SAVED ON UNIT   51 AT END OF TIME STEP    1, STRESS PERIOD    1
1
  VOLUMETRIC BUDGET FOR ENTIRE MODEL AT END OF TIME STEP    1, STRESS PERIOD   1
  ------------------------------------------------------------------------------

     CUMULATIVE VOLUMES      L**3       RATES FOR THIS TIME STEP      L**3/T
     ------------------                 ------------------------

           IN:                                      IN:
           ---                                      ---
             STORAGE =    18218058.7828               STORAGE =      198022.3781
       CONSTANT HEAD =     1193513.4624         CONSTANT HEAD =       12972.9724
               WELLS =           0.0000                 WELLS =           0.0000
            RECHARGE =     1269600.0000              RECHARGE =       13800.0000
      STREAM LEAKAGE =      412210.2741        STREAM LEAKAGE =        4480.5465

            TOTAL IN =    21093382.5193              TOTAL IN =      229275.8969

          OUT:                                     OUT:
          ----                                     ----
             STORAGE =           0.0000               STORAGE =           0.0000
       CONSTANT HEAD =           0.0000         CONSTANT HEAD =           0.0000
               WELLS =     3694936.5452                 WELLS =       40162.3538
            RECHARGE =           0.0000              RECHARGE =           0.0000
      STREAM LEAKAGE =    17398446.2631        STREAM LEAKAGE =      189113.5463

           TOTAL OUT =    21093382.8084             TOTAL OUT =      229275.9001

            IN - OUT =          -0.2891              IN - OUT =      -3.1424E-03

 PERCENT DISCREPANCY =          -0.00     PERCENT DISCREPANCY =          -0.00






         TIME SUMMARY AT END OF TIME STEP    1 IN STRESS PERIOD    1
                    SECONDS     MINUTES      HOURS       DAYS        YEARS
                    -----------------------------------------------------------
   TIME STEP LENGTH 7.94880E+06 1.32480E+05  2208.0      92.000     0.25188    
 STRESS PERIOD TIME 7.94880E+06 1.32480E+05  2208.0      92.000     0.25188    
         TOTAL TIME 7.94880E+06 1.32480E+05  2208.0      92.000     0.25188    
1
1
                            STRESS PERIOD NO.    2, LENGTH =   91.00000    
                            -----------------------------------------------

                              NUMBER OF TIME STEPS =     1

                               MULTIPLIER FOR DELT =     1.500

                            INITIAL TIME STEP SIZE =   91.00000    

 WELL NO.  LAYER   ROW   COL   STRESS RATE         
 --------------------------------------------------
      1      1     10     24     -0.1046E+05
      2      1      7      8      -7751.    
      3      1      5     20      -7335.    
      4      1     11     21     -0.1462E+05

      4 WELLS

                 RECHARGE =  2.000000E-03

 REUSING STREAM SEGMENT DATA FROM LAST STRESS PERIOD
 
 SOLVING FOR HEAD 


     7 CALLS TO PCG ROUTINE FOR TIME STEP   1 IN STRESS PERIOD    2
    27 TOTAL ITERATIONS

 OUTPUT CONTROL FOR STRESS PERIOD    2   TIME STEP    1
    SAVE BUDGET
    SAVE HEAD FOR ALL LAYERS
    PRINT HEAD FOR ALL LAYERS
 UBDSV2 SAVING "STREAMFLOW OUT  " ON UNIT  50 AT TIME STEP  1, STRESS PERIOD   2



 STREAM LISTING     PERIOD      2   STEP        1

 LAYER ROW COL. STREAM  RCH.  FLOW INTO     FLOW TO   FLOW OUT OF   OVRLND.     DIRECT     STREAM       STREAM     STREAM     STREAM   STREAMBED  STREAMBED
                SEG.NO.  NO.  STRM. RCH.    AQUIFER    STRM. RCH.    RUNOFF     PRECIP       ET          HEAD       DEPTH      WIDTH   CONDCTNC.   GRADIENT

   1   13    1     1     1    1.0000E+05 -3.7539E+03   1.0375E+05  0.000E+00  0.000E+00  0.000E+00  4.84076E+01  1.463E-01  2.000E+01  2.000E+04 -1.877E-01
   1   13    2     1     2    1.0375E+05 -5.0003E+03   1.0875E+05  0.000E+00  0.000E+00  0.000E+00  4.79341E+01  1.500E-01  2.000E+01  2.000E+04 -2.500E-01
   1   14    3     1     3    1.0875E+05 -1.1003E+03   1.0985E+05  0.000E+00  0.000E+00  0.000E+00  4.74594E+01  1.526E-01  2.000E+01  2.000E+04 -5.502E-02
   1   15    4     1     4    1.0985E+05 -1.1355E+03   1.1099E+05  0.000E+00  0.000E+00  0.000E+00  4.69831E+01  1.535E-01  2.000E+01  2.000E+04 -5.678E-02
   1   16    5     1     5    1.1099E+05 -4.2547E+03   1.1524E+05  0.000E+00  0.000E+00  0.000E+00  4.65080E+01  1.558E-01  2.000E+01  2.000E+04 -2.127E-01
   1   16    6     1     6    1.1524E+05 -2.5056E+03   1.1775E+05  0.000E+00  0.000E+00  0.000E+00  4.60335E+01  1.585E-01  2.000E+01  2.000E+04 -1.253E-01
   1   16    7     1     7    1.1775E+05 -2.4115E+03   1.2016E+05  0.000E+00  0.000E+00  0.000E+00  4.55583E+01  1.605E-01  2.000E+01  2.000E+04 -1.206E-01
   1   16    8     1     8    1.2016E+05 -2.3836E+03   1.2255E+05  0.000E+00  0.000E+00  0.000E+00  4.50829E+01  1.625E-01  2.000E+01  2.000E+04 -1.192E-01
   1   16    9     1     9    1.2255E+05 -2.3650E+03   1.2491E+05  0.000E+00  0.000E+00  0.000E+00  4.46075E+01  1.644E-01  2.000E+01  2.000E+04 -1.183E-01
   1   16   10     1    10    1.2491E+05 -2.3438E+03   1.2725E+05  0.000E+00  0.000E+00  0.000E+00  4.41321E+01  1.662E-01  2.000E+01  2.000E+04 -1.172E-01
   1   16   11     1    11    1.2725E+05 -2.3537E+03   1.2961E+05  0.000E+00  0.000E+00  0.000E+00  4.36567E+01  1.681E-01  2.000E+01  2.000E+04 -1.177E-01
   1   16   12     1    12    1.2961E+05 -4.1186E+03   1.3373E+05  0.000E+00  0.000E+00  0.000E+00  4.31820E+01  1.706E-01  2.000E+01  2.000E+04 -2.059E-01
   1   15   13     1    13    1.3373E+05 -3.9972E+03   1.3772E+05  0.000E+00  0.000E+00  0.000E+00  4.27078E+01  1.737E-01  2.000E+01  2.000E+04 -1.999E-01
   1   14   14     1    14    1.3772E+05 -4.2703E+03   1.4199E+05  0.000E+00  0.000E+00  0.000E+00  4.22337E+01  1.769E-01  2.000E+01  2.000E+04 -2.135E-01
   1   13   15     1    15    1.4199E+05 -4.4637E+03   1.4646E+05  0.000E+00  0.000E+00  0.000E+00  4.17597E+01  1.802E-01  2.000E+01  2.000E+04 -2.232E-01
   1   12   16     1    16    1.4646E+05 -4.8730E+03   1.5133E+05  0.000E+00  0.000E+00  0.000E+00  4.12859E+01  1.837E-01  2.000E+01  2.000E+04 -2.437E-01
   1   12   17     1    17    1.5133E+05 -3.0663E+03   1.5440E+05  0.000E+00  0.000E+00  0.000E+00  4.08116E+01  1.866E-01  2.000E+01  2.000E+04 -1.533E-01
   1   12   18     1    18    1.5440E+05 -2.5512E+03   1.5695E+05  0.000E+00  0.000E+00  0.000E+00  4.03364E+01  1.886E-01  2.000E+01  2.000E+04 -1.276E-01
   1   12   19     1    19    1.5695E+05 -1.2347E+03   1.5818E+05  0.000E+00  0.000E+00  0.000E+00  3.98605E+01  1.900E-01  2.000E+01  2.000E+04 -6.174E-02
   1   13   20     1    20    1.5818E+05 -9.8410E+02   1.5917E+05  0.000E+00  0.000E+00  0.000E+00  3.93840E+01  1.908E-01  2.000E+01  2.000E+04 -4.920E-02
   1   14   21     1    21    1.5917E+05 -2.6424E+03   1.6181E+05  0.000E+00  0.000E+00  0.000E+00  3.89080E+01  1.921E-01  2.000E+01  2.000E+04 -1.321E-01
   1   14   22     1    22    1.6181E+05  4.8886E+03   1.5692E+05  0.000E+00  0.000E+00  0.000E+00  3.84300E+01  1.913E-01  2.000E+01  2.000E+04  2.444E-01
   1    9   30     2     1    5.0000E+04 -1.8891E+03   5.1889E+04  0.000E+00  0.000E+00  0.000E+00  4.02422E+01  1.172E-01  2.000E+01  2.000E+04 -9.446E-02
   1    9   29     2     2    5.1889E+04 -2.1517E+03   5.4041E+04  0.000E+00  0.000E+00  0.000E+00  3.99949E+01  1.199E-01  2.000E+01  2.000E+04 -1.076E-01
   1    9   28     2     3    5.4041E+04 -2.3222E+03   5.6363E+04  0.000E+00  0.000E+00  0.000E+00  3.97480E+01  1.230E-01  2.000E+01  2.000E+04 -1.161E-01
   1    9   27     2     4    5.6363E+04 -3.4272E+03   5.9790E+04  0.000E+00  0.000E+00  0.000E+00  3.95018E+01  1.268E-01  2.000E+01  2.000E+04 -1.714E-01
   1   10   26     2     5    5.9790E+04 -1.0861E+03   6.0876E+04  0.000E+00  0.000E+00  0.000E+00  3.92547E+01  1.297E-01  2.000E+01  2.000E+04 -5.431E-02
   1   11   25     2     6    6.0876E+04  6.0791E+02   6.0268E+04  0.000E+00  0.000E+00  0.000E+00  3.90050E+01  1.300E-01  2.000E+01  2.000E+04  3.040E-02
   1   12   24     2     7    6.0268E+04  7.0137E+02   5.9567E+04  0.000E+00  0.000E+00  0.000E+00  3.87542E+01  1.292E-01  2.000E+01  2.000E+04  3.507E-02
   1   13   23     2     8    5.9567E+04 -4.6028E+01   5.9613E+04  0.000E+00  0.000E+00  0.000E+00  3.85037E+01  1.287E-01  2.000E+01  2.000E+04 -2.301E-03
   1   14   22     2     9    5.9613E+04  1.3472E+03   5.8266E+04  0.000E+00  0.000E+00  0.000E+00  3.82529E+01  1.279E-01  2.000E+01  2.000E+04  6.736E-02
   1   14   22     3     1    2.1519E+05 -8.7511E+03   2.2394E+05  0.000E+00  0.000E+00  0.000E+00  3.77480E+01  1.924E-01  2.000E+01  2.000E+04 -4.376E-01
   1   15   23     3     2    2.2394E+05 -1.0524E+03   2.2499E+05  0.000E+00  0.000E+00  0.000E+00  3.68616E+01  1.950E-01  2.000E+01  2.000E+04 -5.262E-02
   1   15   24     3     3    2.2499E+05 -6.6361E+02   2.2565E+05  0.000E+00  0.000E+00  0.000E+00  3.59732E+01  1.954E-01  2.000E+01  2.000E+04 -3.318E-02
   1   15   25     3     4    2.2565E+05 -6.6951E+02   2.2632E+05  0.000E+00  0.000E+00  0.000E+00  3.50847E+01  1.958E-01  2.000E+01  2.000E+04 -3.348E-02
   1   15   26     3     5    2.2632E+05 -7.7082E+02   2.2709E+05  0.000E+00  0.000E+00  0.000E+00  3.41961E+01  1.961E-01  2.000E+01  2.000E+04 -3.854E-02
   1   16   27     3     6    2.2709E+05 -8.9777E+02   2.2799E+05  0.000E+00  0.000E+00  0.000E+00  3.33077E+01  1.966E-01  2.000E+01  2.000E+04 -4.489E-02
   1   17   28     3     7    2.2799E+05 -3.2547E+03   2.3125E+05  0.000E+00  0.000E+00  0.000E+00  3.24199E+01  1.977E-01  2.000E+01  2.000E+04 -1.627E-01
   1   18   29     3     8    2.3125E+05 -5.0574E+03   2.3630E+05  0.000E+00  0.000E+00  0.000E+00  3.15331E+01  1.998E-01  2.000E+01  2.000E+04 -2.529E-01
   1   18   30     3     9    2.3630E+05 -4.6846E+03   2.4099E+05  0.000E+00  0.000E+00  0.000E+00  3.06467E+01  2.023E-01  2.000E+01  2.000E+04 -2.342E-01



1
              HEAD IN LAYER   1 AT END OF TIME STEP   1 IN STRESS PERIOD    2
  ---------------------------------------------------------------------------

          1      2      3      4      5      6      7      8      9     10
         11     12     13     14     15     16     17     18     19     20
         21     22     23     24     25     26     27     28     29     30
 .........................................................................
   1  ****** ****** ****** ****** ****** ****** ****** ****** ****** ******
      ****** ****** ****** ****** ****** ****** ****** ****** ****** ******
      ****** ****** ****** ****** ****** ****** ****** ****** ****** ******
   2  ****** ****** ****** ****** ****** ****** ****** ****** ****** ******
      ****** ****** ****** ****** ****** ****** ****** ****** ****** ******
      ****** ****** ****** ****** ****** ****** ****** ****** ****** ******
   3  ****** ****** ****** ****** ****** ****** ****** ****** ****** ******
      ****** ****** ****** ****** ****** ****** ****** ****** ****** ******
      ****** ****** ****** ****** ****** ****** ****** ****** ****** ******
   4  ****** ****** ****** ****** ****** ****** ****** ****** ****** ******
      ****** ****** ****** ****** ****** ****** ****** ****** ****** ******
      ****** ****** ****** ****** ****** ****** ****** ****** ****** ******
   5  ****** ****** ****** ****** ****** ****** ****** ****** ****** ******
      ****** ****** ****** ****** ****** ****** ****** ****** ****** ******
      ****** ****** ****** ****** ****** ****** ****** ****** ****** ******
   6  ****** ****** ****** ****** ****** ****** ****** ****** ****** ******
      ****** ****** ****** ****** ****** ****** ****** ****** ****** ******
      ****** ****** ****** ****** ****** ****** ****** ****** ****** ******
   7  ****** ****** ****** ****** ****** ****** ****** ****** ****** ******
      ****** ****** ****** ****** ****** ****** ****** ****** ****** ******
      ****** ****** ****** ****** ****** ****** ****** ****** ****** ******
   8  ****** ****** ****** ****** ****** ****** ****** ****** ****** ******
      ****** ****** ****** ****** ****** ****** ****** ****** ****** ******
      ****** ****** ****** ****** ****** ****** ****** ****** ****** ******
   9  ****** ****** ****** ****** ****** ****** ****** ****** ****** ******
      ****** ****** ****** ****** ****** ****** ****** ****** ****** ******
      ****** ****** ****** ****** ****** ****** ****** ****** ****** ******
  10  ****** ****** ****** ****** ****** ****** ****** ****** ****** ******
      ****** ****** ****** ****** ****** ****** ****** ****** ****** ******
      ****** ****** ****** ****** ****** ****** ****** ****** ****** ******
  11  ****** ****** ****** ****** ****** ****** ****** ****** ****** ******
      ****** ****** ****** ****** ****** ****** ****** ****** ****** ******
      ****** ****** ****** ****** ****** ****** ****** ****** ****** ******
  12  ****** ****** ****** ****** ****** ****** ****** ****** ****** ******
      ****** ****** ****** ****** ****** ****** ****** ****** ****** ******
      ****** ****** ****** ****** ****** ****** ****** ****** ****** ******
  13  ****** ****** ****** ****** ****** ****** ****** ****** ****** ******
      ****** ****** ****** ****** ****** ****** ****** ****** ****** ******
      ****** ****** ****** ****** ****** ****** ****** ****** ****** ******
  14  ****** ****** ****** ****** ****** ****** ****** ****** ****** ******
      ****** ****** ****** ****** ****** ****** ****** ****** ****** ******
      ****** ****** ****** ****** ****** ****** ****** ****** ****** ******
  15  ****** ****** ****** ****** ****** ****** ****** ****** ****** ******
      ****** ****** ****** ****** ****** ****** ****** ****** ****** ******
      ****** ****** ****** ****** ****** ****** ****** ****** ****** ******
  16  ****** ****** ****** ****** ****** ****** ****** ****** ****** ******
      ****** ****** ****** ****** ****** ****** ****** ****** ****** ******
      ****** ****** ****** ****** ****** ****** ****** ****** ****** ******
  17  ****** ****** ****** ****** ****** ****** ****** ****** ****** ******
      ****** ****** ****** ****** ****** ****** ****** ****** ****** ******
      ****** ****** ****** ****** ****** ****** ****** ****** ****** ******
  18  ****** ****** ****** ****** ****** ****** ****** ****** ****** ******
      ****** ****** ****** ****** ****** ****** ****** ****** ****** ******
      ****** ****** ****** ****** ****** ****** ****** ****** ****** ******
  19  ****** ****** ****** ****** ****** ****** ****** ****** ****** ******
      ****** ****** ****** ****** ****** ****** ****** ****** ****** ******
      ****** ****** ****** ****** ****** ****** ****** ****** ****** ******
  20  ****** ****** ****** ****** ****** ****** ****** ****** ****** ******
      ****** ****** ****** ****** ****** ****** ****** ****** ****** ******
      ****** ****** ****** ****** ****** ****** ****** ****** ****** ******
  21  ****** ****** ****** ****** ****** ****** ****** ****** ****** ******
      ****** ****** ****** ****** ****** ****** ****** ****** ****** ******
      ****** ****** ****** ****** ****** ****** ****** ****** ****** ******
  22  ****** ****** ****** ****** ****** ****** ****** ****** ****** ******
      ****** ****** ****** ****** ****** ****** ****** ****** ****** ******
      ****** ****** ****** ****** ****** ****** ****** ****** ****** ******
  23  ****** ****** ****** ****** ****** ****** ****** ****** ****** ******
      ****** ****** ****** ****** ****** ****** ****** ****** ****** ******
      ****** ****** ****** ****** ****** ****** ****** ****** ****** ******
  24  ****** ****** ****** ****** ****** ****** ****** ****** ****** ******
      ****** ****** ****** ****** ****** ****** ****** ****** ****** ******
      ****** ****** ****** ****** ****** ****** ****** ****** ****** ******
  25  ****** ****** ****** ****** ****** ****** ****** ****** ****** ******
      ****** ****** ****** ****** ****** ****** ****** ****** ****** ******
      ****** ****** ****** ****** ****** ****** ****** ****** ****** ******

 HEAD WILL BE SAVED ON UNIT   51 AT END OF TIME STEP    1, STRESS PERIOD    2
1
  VOLUMETRIC BUDGET FOR ENTIRE MODEL AT END OF TIME STEP    1, STRESS PERIOD   2
  ------------------------------------------------------------------------------

     CUMULATIVE VOLUMES      L**3       RATES FOR THIS TIME STEP      L**3/T
     ------------------                 ------------------------

           IN:                                      IN:
           ---                                      ---
             STORAGE =    23495422.3926               STORAGE =       57993.0067
       CONSTANT HEAD =     2827690.8243         CONSTANT HEAD =       17957.9930
               WELLS =           0.0000                 WELLS =           0.0000
            RECHARGE =     6292800.0000              RECHARGE =       55200.0000
      STREAM LEAKAGE =     1098816.6184        STREAM LEAKAGE =        7545.1247

            TOTAL IN =    33714729.8353              TOTAL IN =      138696.1244

          OUT:                                     OUT:
          ----                                     ----
             STORAGE =           0.0000               STORAGE =           0.0000
       CONSTANT HEAD =           0.0000         CONSTANT HEAD =           0.0000
               WELLS =     7349710.7367                 WELLS =       40162.3538
            RECHARGE =           0.0000              RECHARGE =           0.0000
      STREAM LEAKAGE =    26365020.3551        STREAM LEAKAGE =       98533.7812

           TOTAL OUT =    33714731.0917             TOTAL OUT =      138696.1350

            IN - OUT =          -1.2564              IN - OUT =      -1.0630E-02

 PERCENT DISCREPANCY =          -0.00     PERCENT DISCREPANCY =          -0.00






         TIME SUMMARY AT END OF TIME STEP    1 IN STRESS PERIOD    2
                    SECONDS     MINUTES      HOURS       DAYS        YEARS
                    -----------------------------------------------------------
   TIME STEP LENGTH 7.86240E+06 1.31040E+05  2184.0      91.000     0.24914    
 STRESS PERIOD TIME 7.86240E+06 1.31040E+05  2184.0      91.000     0.24914    
         TOTAL TIME 1.58112E+07 2.63520E+05  4392.0      183.00     0.50103    
1
1
                            STRESS PERIOD NO.    3, LENGTH =   91.00000    
                            -----------------------------------------------

                              NUMBER OF TIME STEPS =     1

                               MULTIPLIER FOR DELT =     1.500

                            INITIAL TIME STEP SIZE =   91.00000    

 WELL NO.  LAYER   ROW   COL   STRESS RATE         
 --------------------------------------------------
      1      1     10     24     -0.1046E+05
      2      1      7      8      -7751.    
      3      1      5     20      -7335.    
      4      1     11     21     -0.1462E+05

      4 WELLS

                 RECHARGE =   0.00000    

 REUSING STREAM SEGMENT DATA FROM LAST STRESS PERIOD
 
 SOLVING FOR HEAD 


     7 CALLS TO PCG ROUTINE FOR TIME STEP   1 IN STRESS PERIOD    3
    27 TOTAL ITERATIONS

 OUTPUT CONTROL FOR STRESS PERIOD    3   TIME STEP    1
    SAVE BUDGET
    SAVE HEAD FOR ALL LAYERS
    PRINT HEAD FOR ALL LAYERS
 UBDSV2 SAVING "STREAMFLOW OUT  " ON UNIT  50 AT TIME STEP  1, STRESS PERIOD   3



 STREAM LISTING     PERIOD      3   STEP        1

 LAYER ROW COL. STREAM  RCH.  FLOW INTO     FLOW TO   FLOW OUT OF   OVRLND.     DIRECT     STREAM       STREAM     STREAM     STREAM   STREAMBED  STREAMBED
                SEG.NO.  NO.  STRM. RCH.    AQUIFER    STRM. RCH.    RUNOFF     PRECIP       ET          HEAD       DEPTH      WIDTH   CONDCTNC.   GRADIENT

   1   13    1     1     1    1.0000E+05 -2.3856E+03   1.0239E+05  0.000E+00  0.000E+00  0.000E+00  4.84070E+01  1.457E-01  2.000E+01  2.000E+04 -1.193E-01
   1   13    2     1     2    1.0239E+05 -3.4661E+03   1.0585E+05  0.000E+00  0.000E+00  0.000E+00  4.79323E+01  1.482E-01  2.000E+01  2.000E+04 -1.733E-01
   1   14    3     1     3    1.0585E+05 -6.2834E+02   1.0648E+05  0.000E+00  0.000E+00  0.000E+00  4.74568E+01  1.499E-01  2.000E+01  2.000E+04 -3.142E-02
   1   15    4     1     4    1.0648E+05 -6.2360E+02   1.0710E+05  0.000E+00  0.000E+00  0.000E+00  4.69800E+01  1.505E-01  2.000E+01  2.000E+04 -3.118E-02
   1   16    5     1     5    1.0710E+05 -2.4615E+03   1.0957E+05  0.000E+00  0.000E+00  0.000E+00  4.65040E+01  1.518E-01  2.000E+01  2.000E+04 -1.231E-01
   1   16    6     1     6    1.0957E+05 -1.5006E+03   1.1107E+05  0.000E+00  0.000E+00  0.000E+00  4.60284E+01  1.534E-01  2.000E+01  2.000E+04 -7.503E-02
   1   16    7     1     7    1.1107E+05 -1.4642E+03   1.1253E+05  0.000E+00  0.000E+00  0.000E+00  4.55524E+01  1.547E-01  2.000E+01  2.000E+04 -7.321E-02
   1   16    8     1     8    1.1253E+05 -1.4547E+03   1.1398E+05  0.000E+00  0.000E+00  0.000E+00  4.50763E+01  1.559E-01  2.000E+01  2.000E+04 -7.274E-02
   1   16    9     1     9    1.1398E+05 -1.4418E+03   1.1543E+05  0.000E+00  0.000E+00  0.000E+00  4.46002E+01  1.571E-01  2.000E+01  2.000E+04 -7.209E-02
   1   16   10     1    10    1.1543E+05 -1.4229E+03   1.1685E+05  0.000E+00  0.000E+00  0.000E+00  4.41241E+01  1.582E-01  2.000E+01  2.000E+04 -7.114E-02
   1   16   11     1    11    1.1685E+05 -1.4296E+03   1.1828E+05  0.000E+00  0.000E+00  0.000E+00  4.36480E+01  1.594E-01  2.000E+01  2.000E+04 -7.148E-02
   1   16   12     1    12    1.1828E+05 -2.5060E+03   1.2078E+05  0.000E+00  0.000E+00  0.000E+00  4.31724E+01  1.610E-01  2.000E+01  2.000E+04 -1.253E-01
   1   15   13     1    13    1.2078E+05 -2.3064E+03   1.2309E+05  0.000E+00  0.000E+00  0.000E+00  4.26970E+01  1.629E-01  2.000E+01  2.000E+04 -1.153E-01
   1   14   14     1    14    1.2309E+05 -2.4970E+03   1.2559E+05  0.000E+00  0.000E+00  0.000E+00  4.22217E+01  1.649E-01  2.000E+01  2.000E+04 -1.249E-01
   1   13   15     1    15    1.2559E+05 -2.6454E+03   1.2823E+05  0.000E+00  0.000E+00  0.000E+00  4.17464E+01  1.669E-01  2.000E+01  2.000E+04 -1.323E-01
   1   12   16     1    16    1.2823E+05 -2.9095E+03   1.3114E+05  0.000E+00  0.000E+00  0.000E+00  4.12713E+01  1.691E-01  2.000E+01  2.000E+04 -1.455E-01
   1   12   17     1    17    1.3114E+05 -1.6719E+03   1.3282E+05  0.000E+00  0.000E+00  0.000E+00  4.07959E+01  1.709E-01  2.000E+01  2.000E+04 -8.359E-02
   1   12   18     1    18    1.3282E+05 -1.1777E+03   1.3399E+05  0.000E+00  0.000E+00  0.000E+00  4.03197E+01  1.720E-01  2.000E+01  2.000E+04 -5.889E-02
   1   12   19     1    19    1.3399E+05  5.2553E+02   1.3347E+05  0.000E+00  0.000E+00  0.000E+00  3.98427E+01  1.722E-01  2.000E+01  2.000E+04  2.628E-02
   1   13   20     1    20    1.3347E+05  5.4506E+02   1.3292E+05  0.000E+00  0.000E+00  0.000E+00  3.93650E+01  1.718E-01  2.000E+01  2.000E+04  2.725E-02
   1   14   21     1    21    1.3292E+05 -1.1642E+03   1.3409E+05  0.000E+00  0.000E+00  0.000E+00  3.88879E+01  1.720E-01  2.000E+01  2.000E+04 -5.821E-02
   1   14   22     1    22    1.3409E+05  5.2604E+03   1.2883E+05  0.000E+00  0.000E+00  0.000E+00  3.84091E+01  1.704E-01  2.000E+01  2.000E+04  2.630E-01
   1    9   30     2     1    5.0000E+04 -6.3090E+02   5.0631E+04  0.000E+00  0.000E+00  0.000E+00  4.02413E+01  1.163E-01  2.000E+01  2.000E+04 -3.154E-02
   1    9   29     2     2    5.0631E+04 -8.8990E+02   5.1521E+04  0.000E+00  0.000E+00  0.000E+00  3.99924E+01  1.174E-01  2.000E+01  2.000E+04 -4.449E-02
   1    9   28     2     3    5.1521E+04 -1.0336E+03   5.2554E+04  0.000E+00  0.000E+00  0.000E+00  3.97437E+01  1.187E-01  2.000E+01  2.000E+04 -5.168E-02
   1    9   27     2     4    5.2554E+04 -1.5177E+03   5.4072E+04  0.000E+00  0.000E+00  0.000E+00  3.94954E+01  1.204E-01  2.000E+01  2.000E+04 -7.589E-02
   1   10   26     2     5    5.4072E+04  6.8297E+02   5.3389E+04  0.000E+00  0.000E+00  0.000E+00  3.92460E+01  1.210E-01  2.000E+01  2.000E+04  3.415E-02
   1   11   25     2     6    5.3389E+04  2.2591E+03   5.1130E+04  0.000E+00  0.000E+00  0.000E+00  3.89940E+01  1.190E-01  2.000E+01  2.000E+04  1.130E-01
   1   12   24     2     7    5.1130E+04  2.1916E+03   4.8938E+04  0.000E+00  0.000E+00  0.000E+00  3.87409E+01  1.159E-01  2.000E+01  2.000E+04  1.096E-01
   1   13   23     2     8    4.8938E+04  3.1080E+02   4.8628E+04  0.000E+00  0.000E+00  0.000E+00  3.84892E+01  1.142E-01  2.000E+01  2.000E+04  1.554E-02
   1   14   22     2     9    4.8628E+04  1.8318E+03   4.6796E+04  0.000E+00  0.000E+00  0.000E+00  3.82377E+01  1.127E-01  2.000E+01  2.000E+04  9.159E-02
   1   14   22     3     1    1.7562E+05 -8.3965E+03   1.8402E+05  0.000E+00  0.000E+00  0.000E+00  3.77262E+01  1.707E-01  2.000E+01  2.000E+04 -4.198E-01
   1   15   23     3     2    1.8402E+05 -6.6667E+02   1.8468E+05  0.000E+00  0.000E+00  0.000E+00  3.68399E+01  1.733E-01  2.000E+01  2.000E+04 -3.333E-02
   1   15   24     3     3    1.8468E+05 -3.4348E+02   1.8503E+05  0.000E+00  0.000E+00  0.000E+00  3.59513E+01  1.735E-01  2.000E+01  2.000E+04 -1.717E-02
   1   15   25     3     4    1.8503E+05 -3.3217E+02   1.8536E+05  0.000E+00  0.000E+00  0.000E+00  3.50626E+01  1.737E-01  2.000E+01  2.000E+04 -1.661E-02
   1   15   26     3     5    1.8536E+05 -3.6787E+02   1.8573E+05  0.000E+00  0.000E+00  0.000E+00  3.41739E+01  1.739E-01  2.000E+01  2.000E+04 -1.839E-02
   1   16   27     3     6    1.8573E+05 -4.3405E+02   1.8616E+05  0.000E+00  0.000E+00  0.000E+00  3.32853E+01  1.742E-01  2.000E+01  2.000E+04 -2.170E-02
   1   17   28     3     7    1.8616E+05 -1.8491E+03   1.8801E+05  0.000E+00  0.000E+00  0.000E+00  3.23970E+01  1.748E-01  2.000E+01  2.000E+04 -9.246E-02
   1   18   29     3     8    1.8801E+05 -3.5547E+03   1.9157E+05  0.000E+00  0.000E+00  0.000E+00  3.15096E+01  1.763E-01  2.000E+01  2.000E+04 -1.777E-01
   1   18   30     3     9    1.9157E+05 -3.5565E+03   1.9512E+05  0.000E+00  0.000E+00  0.000E+00  3.06227E+01  1.783E-01  2.000E+01  2.000E+04 -1.778E-01



1
              HEAD IN LAYER   1 AT END OF TIME STEP   1 IN STRESS PERIOD    3
  ---------------------------------------------------------------------------

          1      2      3      4      5      6      7      8      9     10
         11     12     13     14     15     16     17     18     19     20
         21     22     23     24     25     26     27     28     29     30
 .........................................................................
   1  ****** ****** ****** ****** ****** ****** ****** ****** ****** ******
      ****** ****** ****** ****** ****** ****** ****** ****** ****** ******
      ****** ****** ****** ****** ****** ****** ****** ****** ****** ******
   2  ****** ****** ****** ****** ****** ****** ****** ****** ****** ******
      ****** ****** ****** ****** ****** ****** ****** ****** ****** ******
      ****** ****** ****** ****** ****** ****** ****** ****** ****** ******
   3  ****** ****** ****** ****** ****** ****** ****** ****** ****** ******
      ****** ****** ****** ****** ****** ****** ****** ****** ****** ******
      ****** ****** ****** ****** ****** ****** ****** ****** ****** ******
   4  ****** ****** ****** ****** ****** ****** ****** ****** ****** ******
      ****** ****** ****** ****** ****** ****** ****** ****** ****** ******
      ****** ****** ****** ****** ****** ****** ****** ****** ****** ******
   5  ****** ****** ****** ****** ****** ****** ****** ****** ****** ******
      ****** ****** ****** ****** ****** ****** ****** ****** ****** ******
      ****** ****** ****** ****** ****** ****** ****** ****** ****** ******
   6  ****** ****** ****** ****** ****** ****** ****** ****** ****** ******
      ****** ****** ****** ****** ****** ****** ****** ****** ****** ******
      ****** ****** ****** ****** ****** ****** ****** ****** ****** ******
   7  ****** ****** ****** ****** ****** ****** ****** ****** ****** ******
      ****** ****** ****** ****** ****** ****** ****** ****** ****** ******
      ****** ****** ****** ****** ****** ****** ****** ****** ****** ******
   8  ****** ****** ****** ****** ****** ****** ****** ****** ****** ******
      ****** ****** ****** ****** ****** ****** ****** ****** ****** ******
      ****** ****** ****** ****** ****** ****** ****** ****** ****** ******
   9  ****** ****** ****** ****** ****** ****** ****** ****** ****** ******
      ****** ****** ****** ****** ****** ****** ****** ****** ****** ******
      ****** ****** ****** ****** ****** ****** ****** ****** ****** ******
  10  ****** ****** ****** ****** ****** ****** ****** ****** ****** ******
      ****** ****** ****** ****** ****** ****** ****** ****** ****** ******
      ****** ****** ****** ****** ****** ****** ****** ****** ****** ******
  11  ****** ****** ****** ****** ****** ****** ****** ****** ****** ******
      ****** ****** ****** ****** ****** ****** ****** ****** ****** ******
      ****** ****** ****** ****** ****** ****** ****** ****** ****** ******
  12  ****** ****** ****** ****** ****** ****** ****** ****** ****** ******
      ****** ****** ****** ****** ****** ****** ****** ****** ****** ******
      ****** ****** ****** ****** ****** ****** ****** ****** ****** ******
  13  ****** ****** ****** ****** ****** ****** ****** ****** ****** ******
      ****** ****** ****** ****** ****** ****** ****** ****** ****** ******
      ****** ****** ****** ****** ****** ****** ****** ****** ****** ******
  14  ****** ****** ****** ****** ****** ****** ****** ****** ****** ******
      ****** ****** ****** ****** ****** ****** ****** ****** ****** ******
      ****** ****** ****** ****** ****** ****** ****** ****** ****** ******
  15  ****** ****** ****** ****** ****** ****** ****** ****** ****** ******
      ****** ****** ****** ****** ****** ****** ****** ****** ****** ******
      ****** ****** ****** ****** ****** ****** ****** ****** ****** ******
  16  ****** ****** ****** ****** ****** ****** ****** ****** ****** ******
      ****** ****** ****** ****** ****** ****** ****** ****** ****** ******
      ****** ****** ****** ****** ****** ****** ****** ****** ****** ******
  17  ****** ****** ****** ****** ****** ****** ****** ****** ****** ******
      ****** ****** ****** ****** ****** ****** ****** ****** ****** ******
      ****** ****** ****** ****** ****** ****** ****** ****** ****** ******
  18  ****** ****** ****** ****** ****** ****** ****** ****** ****** ******
      ****** ****** ****** ****** ****** ****** ****** ****** ****** ******
      ****** ****** ****** ****** ****** ****** ****** ****** ****** ******
  19  ****** ****** ****** ****** ****** ****** ****** ****** ****** ******
      ****** ****** ****** ****** ****** ****** ****** ****** ****** ******
      ****** ****** ****** ****** ****** ****** ****** ****** ****** ******
  20  ****** ****** ****** ****** ****** ****** ****** ****** ****** ******
      ****** ****** ****** ****** ****** ****** ****** ****** ****** ******
      ****** ****** ****** ****** ****** ****** ****** ****** ****** ******
  21  ****** ****** ****** ****** ****** ****** ****** ****** ****** ******
      ****** ****** ****** ****** ****** ****** ****** ****** ****** ******
      ****** ****** ****** ****** ****** ****** ****** ****** ****** ******
  22  ****** ****** ****** ****** ****** ****** ****** ****** ****** ******
      ****** ****** ****** ****** ****** ****** ****** ****** ****** ******
      ****** ****** ****** ****** ****** ****** ****** ****** ****** ******
  23  ****** ****** ****** ****** ****** ****** ****** ****** ****** ******
      ****** ****** ****** ****** ****** ****** ****** ****** ****** ******
      ****** ****** ****** ****** ****** ****** ****** ****** ****** ******
  24  ****** ****** ****** ****** ****** ****** ****** ****** ****** ******
      ****** ****** ****** ****** ****** ****** ****** ****** ****** ******
      ****** ****** ****** ****** ****** ****** ****** ****** ****** ******
  25  ****** ****** ****** ****** ****** ****** ****** ****** ****** ******
      ****** ****** ****** ****** ****** ****** ****** ****** ****** ******
      ****** ****** ****** ****** ****** ****** ****** ****** ****** ******

 HEAD WILL BE SAVED ON UNIT   51 AT END OF TIME STEP    1, STRESS PERIOD    3
1
  VOLUMETRIC BUDGET FOR ENTIRE MODEL AT END OF TIME STEP    1, STRESS PERIOD   3
  ------------------------------------------------------------------------------

     CUMULATIVE VOLUMES      L**3       RATES FOR THIS TIME STEP      L**3/T
     ------------------                 ------------------------

           IN:                                      IN:
           ---                                      ---
             STORAGE =    28808192.2631               STORAGE =       58382.0865
       CONSTANT HEAD =     5275878.6941         CONSTANT HEAD =       26903.1634
               WELLS =           0.0000                 WELLS =           0.0000
            RECHARGE =     6292800.0000              RECHARGE =           0.0000
      STREAM LEAKAGE =     2337074.6620        STREAM LEAKAGE =       13607.2312

            TOTAL IN =    42713945.6193              TOTAL IN =       98892.4811

          OUT:                                     OUT:
          ----                                     ----
             STORAGE =           0.0000               STORAGE =           0.0000
       CONSTANT HEAD =           0.0000         CONSTANT HEAD =           0.0000
               WELLS =    11004484.9281                 WELLS =       40162.3538
            RECHARGE =           0.0000              RECHARGE =           0.0000
      STREAM LEAKAGE =    31709462.6585        STREAM LEAKAGE =       58730.1352

           TOTAL OUT =    42713947.5867             TOTAL OUT =       98892.4890

            IN - OUT =          -1.9674              IN - OUT =      -7.8124E-03

 PERCENT DISCREPANCY =          -0.00     PERCENT DISCREPANCY =          -0.00






         TIME SUMMARY AT END OF TIME STEP    1 IN STRESS PERIOD    3
                    SECONDS     MINUTES      HOURS       DAYS        YEARS
                    -----------------------------------------------------------
   TIME STEP LENGTH 7.86240E+06 1.31040E+05  2184.0      91.000     0.24914    
 STRESS PERIOD TIME 7.86240E+06 1.31040E+05  2184.0      91.000     0.24914    
         TOTAL TIME 2.36736E+07 3.94560E+05  6576.0      274.00     0.75017    
1
1
                            STRESS PERIOD NO.    4, LENGTH =   91.00000    
                            -----------------------------------------------

                              NUMBER OF TIME STEPS =     1

                               MULTIPLIER FOR DELT =     1.500

                            INITIAL TIME STEP SIZE =   91.00000    

 WELL NO.  LAYER   ROW   COL   STRESS RATE         
 --------------------------------------------------
      1      1     10     24     -0.1046E+05
      2      1      7      8      -7751.    
      3      1      5     20      -7335.    
      4      1     11     21     -0.1462E+05

      4 WELLS

                 RECHARGE =  1.000000E-03

 REUSING STREAM SEGMENT DATA FROM LAST STRESS PERIOD
 
 SOLVING FOR HEAD 


     6 CALLS TO PCG ROUTINE FOR TIME STEP   1 IN STRESS PERIOD    4
    23 TOTAL ITERATIONS

 OUTPUT CONTROL FOR STRESS PERIOD    4   TIME STEP    1
    SAVE BUDGET
    SAVE HEAD FOR ALL LAYERS
    PRINT HEAD FOR ALL LAYERS
 UBDSV2 SAVING "STREAMFLOW OUT  " ON UNIT  50 AT TIME STEP  1, STRESS PERIOD   4



 STREAM LISTING     PERIOD      4   STEP        1

 LAYER ROW COL. STREAM  RCH.  FLOW INTO     FLOW TO   FLOW OUT OF   OVRLND.     DIRECT     STREAM       STREAM     STREAM     STREAM   STREAMBED  STREAMBED
                SEG.NO.  NO.  STRM. RCH.    AQUIFER    STRM. RCH.    RUNOFF     PRECIP       ET          HEAD       DEPTH      WIDTH   CONDCTNC.   GRADIENT

   1   13    1     1     1    1.0000E+05 -2.0590E+03   1.0206E+05  0.000E+00  0.000E+00  0.000E+00  4.84069E+01  1.455E-01  2.000E+01  2.000E+04 -1.030E-01
   1   13    2     1     2    1.0206E+05 -3.0899E+03   1.0515E+05  0.000E+00  0.000E+00  0.000E+00  4.79318E+01  1.478E-01  2.000E+01  2.000E+04 -1.545E-01
   1   14    3     1     3    1.0515E+05 -5.8946E+02   1.0574E+05  0.000E+00  0.000E+00  0.000E+00  4.74561E+01  1.493E-01  2.000E+01  2.000E+04 -2.947E-02
   1   15    4     1     4    1.0574E+05 -5.7849E+02   1.0632E+05  0.000E+00  0.000E+00  0.000E+00  4.69794E+01  1.498E-01  2.000E+01  2.000E+04 -2.892E-02
   1   16    5     1     5    1.0632E+05 -2.1616E+03   1.0848E+05  0.000E+00  0.000E+00  0.000E+00  4.65033E+01  1.510E-01  2.000E+01  2.000E+04 -1.081E-01
   1   16    6     1     6    1.0848E+05 -1.3501E+03   1.0983E+05  0.000E+00  0.000E+00  0.000E+00  4.60275E+01  1.525E-01  2.000E+01  2.000E+04 -6.751E-02
   1   16    7     1     7    1.0983E+05 -1.3246E+03   1.1115E+05  0.000E+00  0.000E+00  0.000E+00  4.55513E+01  1.536E-01  2.000E+01  2.000E+04 -6.623E-02
   1   16    8     1     8    1.1115E+05 -1.3200E+03   1.1247E+05  0.000E+00  0.000E+00  0.000E+00  4.50751E+01  1.547E-01  2.000E+01  2.000E+04 -6.600E-02
   1   16    9     1     9    1.1247E+05 -1.3112E+03   1.1378E+05  0.000E+00  0.000E+00  0.000E+00  4.45989E+01  1.558E-01  2.000E+01  2.000E+04 -6.556E-02
   1   16   10     1    10    1.1378E+05 -1.2979E+03   1.1508E+05  0.000E+00  0.000E+00  0.000E+00  4.41227E+01  1.568E-01  2.000E+01  2.000E+04 -6.489E-02
   1   16   11     1    11    1.1508E+05 -1.3077E+03   1.1639E+05  0.000E+00  0.000E+00  0.000E+00  4.36465E+01  1.579E-01  2.000E+01  2.000E+04 -6.539E-02
   1   16   12     1    12    1.1639E+05 -2.2446E+03   1.1863E+05  0.000E+00  0.000E+00  0.000E+00  4.31707E+01  1.594E-01  2.000E+01  2.000E+04 -1.122E-01
   1   15   13     1    13    1.1863E+05 -2.0357E+03   1.2067E+05  0.000E+00  0.000E+00  0.000E+00  4.26952E+01  1.611E-01  2.000E+01  2.000E+04 -1.018E-01
   1   14   14     1    14    1.2067E+05 -2.1810E+03   1.2285E+05  0.000E+00  0.000E+00  0.000E+00  4.22196E+01  1.628E-01  2.000E+01  2.000E+04 -1.091E-01
   1   13   15     1    15    1.2285E+05 -2.2803E+03   1.2513E+05  0.000E+00  0.000E+00  0.000E+00  4.17441E+01  1.646E-01  2.000E+01  2.000E+04 -1.140E-01
   1   12   16     1    16    1.2513E+05 -2.4019E+03   1.2753E+05  0.000E+00  0.000E+00  0.000E+00  4.12687E+01  1.664E-01  2.000E+01  2.000E+04 -1.201E-01
   1   12   17     1    17    1.2753E+05 -1.3760E+03   1.2891E+05  0.000E+00  0.000E+00  0.000E+00  4.07929E+01  1.679E-01  2.000E+01  2.000E+04 -6.880E-02
   1   12   18     1    18    1.2891E+05 -9.0472E+02   1.2981E+05  0.000E+00  0.000E+00  0.000E+00  4.03165E+01  1.688E-01  2.000E+01  2.000E+04 -4.524E-02
   1   12   19     1    19    1.2981E+05  8.7435E+02   1.2894E+05  0.000E+00  0.000E+00  0.000E+00  3.98393E+01  1.688E-01  2.000E+01  2.000E+04  4.372E-02
   1   13   20     1    20    1.2894E+05  7.4335E+02   1.2820E+05  0.000E+00  0.000E+00  0.000E+00  3.93614E+01  1.682E-01  2.000E+01  2.000E+04  3.717E-02
   1   14   21     1    21    1.2820E+05 -9.4298E+02   1.2914E+05  0.000E+00  0.000E+00  0.000E+00  3.88842E+01  1.683E-01  2.000E+01  2.000E+04 -4.715E-02
   1   14   22     1    22    1.2914E+05  5.2966E+03   1.2384E+05  0.000E+00  0.000E+00  0.000E+00  3.84052E+01  1.666E-01  2.000E+01  2.000E+04  2.648E-01
   1    9   30     2     1    5.0000E+04 -5.1179E+02   5.0512E+04  0.000E+00  0.000E+00  0.000E+00  4.02412E+01  1.162E-01  2.000E+01  2.000E+04 -2.559E-02
   1    9   29     2     2    5.0512E+04 -7.6147E+02   5.1273E+04  0.000E+00  0.000E+00  0.000E+00  3.99921E+01  1.171E-01  2.000E+01  2.000E+04 -3.807E-02
   1    9   28     2     3    5.1273E+04 -8.7880E+02   5.2152E+04  0.000E+00  0.000E+00  0.000E+00  3.97432E+01  1.182E-01  2.000E+01  2.000E+04 -4.394E-02
   1    9   27     2     4    5.2152E+04 -1.1714E+03   5.3323E+04  0.000E+00  0.000E+00  0.000E+00  3.94946E+01  1.196E-01  2.000E+01  2.000E+04 -5.857E-02
   1   10   26     2     5    5.3323E+04  9.0251E+02   5.2421E+04  0.000E+00  0.000E+00  0.000E+00  3.92448E+01  1.198E-01  2.000E+01  2.000E+04  4.513E-02
   1   11   25     2     6    5.2421E+04  2.4327E+03   4.9988E+04  0.000E+00  0.000E+00  0.000E+00  3.89925E+01  1.175E-01  2.000E+01  2.000E+04  1.216E-01
   1   12   24     2     7    4.9988E+04  2.3459E+03   4.7642E+04  0.000E+00  0.000E+00  0.000E+00  3.87392E+01  1.142E-01  2.000E+01  2.000E+04  1.173E-01
   1   13   23     2     8    4.7642E+04  2.9377E+02   4.7349E+04  0.000E+00  0.000E+00  0.000E+00  3.84873E+01  1.123E-01  2.000E+01  2.000E+04  1.469E-02
   1   14   22     2     9    4.7349E+04  1.9083E+03   4.5440E+04  0.000E+00  0.000E+00  0.000E+00  3.82358E+01  1.108E-01  2.000E+01  2.000E+04  9.542E-02
   1   14   22     3     1    1.6928E+05 -8.3553E+03   1.7764E+05  0.000E+00  0.000E+00  0.000E+00  3.77226E+01  1.670E-01  2.000E+01  2.000E+04 -4.178E-01
   1   15   23     3     2    1.7764E+05 -6.4817E+02   1.7829E+05  0.000E+00  0.000E+00  0.000E+00  3.68363E+01  1.696E-01  2.000E+01  2.000E+04 -3.241E-02
   1   15   24     3     3    1.7829E+05 -3.4509E+02   1.7863E+05  0.000E+00  0.000E+00  0.000E+00  3.59477E+01  1.699E-01  2.000E+01  2.000E+04 -1.725E-02
   1   15   25     3     4    1.7863E+05 -3.3318E+02   1.7897E+05  0.000E+00  0.000E+00  0.000E+00  3.50590E+01  1.701E-01  2.000E+01  2.000E+04 -1.666E-02
   1   15   26     3     5    1.7897E+05 -3.7800E+02   1.7934E+05  0.000E+00  0.000E+00  0.000E+00  3.41703E+01  1.703E-01  2.000E+01  2.000E+04 -1.890E-02
   1   16   27     3     6    1.7934E+05 -4.3638E+02   1.7978E+05  0.000E+00  0.000E+00  0.000E+00  3.32817E+01  1.705E-01  2.000E+01  2.000E+04 -2.182E-02
   1   17   28     3     7    1.7978E+05 -1.7930E+03   1.8157E+05  0.000E+00  0.000E+00  0.000E+00  3.23934E+01  1.712E-01  2.000E+01  2.000E+04 -8.965E-02
   1   18   29     3     8    1.8157E+05 -3.3535E+03   1.8493E+05  0.000E+00  0.000E+00  0.000E+00  3.15060E+01  1.726E-01  2.000E+01  2.000E+04 -1.677E-01
   1   18   30     3     9    1.8493E+05 -3.4584E+03   1.8838E+05  0.000E+00  0.000E+00  0.000E+00  3.06190E+01  1.746E-01  2.000E+01  2.000E+04 -1.729E-01



1
              HEAD IN LAYER   1 AT END OF TIME STEP   1 IN STRESS PERIOD    4
  ---------------------------------------------------------------------------

          1      2      3      4      5      6      7      8      9     10
         11     12     13     14     15     16     17     18     19     20
         21     22     23     24     25     26     27     28     29     30
 .........................................................................
   1  ****** ****** ****** ****** ****** ****** ****** ****** ****** ******
      ****** ****** ****** ****** ****** ****** ****** ****** ****** ******
      ****** ****** ****** ****** ****** ****** ****** ****** ****** ******
   2  ****** ****** ****** ****** ****** ****** ****** ****** ****** ******
      ****** ****** ****** ****** ****** ****** ****** ****** ****** ******
      ****** ****** ****** ****** ****** ****** ****** ****** ****** ******
   3  ****** ****** ****** ****** ****** ****** ****** ****** ****** ******
      ****** ****** ****** ****** ****** ****** ****** ****** ****** ******
      ****** ****** ****** ****** ****** ****** ****** ****** ****** ******
   4  ****** ****** ****** ****** ****** ****** ****** ****** ****** ******
      ****** ****** ****** ****** ****** ****** ****** ****** ****** ******
      ****** ****** ****** ****** ****** ****** ****** ****** ****** ******
   5  ****** ****** ****** ****** ****** ****** ****** ****** ****** ******
      ****** ****** ****** ****** ****** ****** ****** ****** ****** ******
      ****** ****** ****** ****** ****** ****** ****** ****** ****** ******
   6  ****** ****** ****** ****** ****** ****** ****** ****** ****** ******
      ****** ****** ****** ****** ****** ****** ****** ****** ****** ******
      ****** ****** ****** ****** ****** ****** ****** ****** ****** ******
   7  ****** ****** ****** ****** ****** ****** ****** ****** ****** ******
      ****** ****** ****** ****** ****** ****** ****** ****** ****** ******
      ****** ****** ****** ****** ****** ****** ****** ****** ****** ******
   8  ****** ****** ****** ****** ****** ****** ****** ****** ****** ******
      ****** ****** ****** ****** ****** ****** ****** ****** ****** ******
      ****** ****** ****** ****** ****** ****** ****** ****** ****** ******
   9  ****** ****** ****** ****** ****** ****** ****** ****** ****** ******
      ****** ****** ****** ****** ****** ****** ****** ****** ****** ******
      ****** ****** ****** ****** ****** ****** ****** ****** ****** ******
  10  ****** ****** ****** ****** ****** ****** ****** ****** ****** ******
      ****** ****** ****** ****** ****** ****** ****** ****** ****** ******
      ****** ****** ****** ****** ****** ****** ****** ****** ****** ******
  11  ****** ****** ****** ****** ****** ****** ****** ****** ****** ******
      ****** ****** ****** ****** ****** ****** ****** ****** ****** ******
      ****** ****** ****** ****** ****** ****** ****** ****** ****** ******
  12  ****** ****** ****** ****** ****** ****** ****** ****** ****** ******
      ****** ****** ****** ****** ****** ****** ****** ****** ****** ******
      ****** ****** ****** ****** ****** ****** ****** ****** ****** ******
  13  ****** ****** ****** ****** ****** ****** ****** ****** ****** ******
      ****** ****** ****** ****** ****** ****** ****** ****** ****** ******
      ****** ****** ****** ****** ****** ****** ****** ****** ****** ******
  14  ****** ****** ****** ****** ****** ****** ****** ****** ****** ******
      ****** ****** ****** ****** ****** ****** ****** ****** ****** ******
      ****** ****** ****** ****** ****** ****** ****** ****** ****** ******
  15  ****** ****** ****** ****** ****** ****** ****** ****** ****** ******
      ****** ****** ****** ****** ****** ****** ****** ****** ****** ******
      ****** ****** ****** ****** ****** ****** ****** ****** ****** ******
  16  ****** ****** ****** ****** ****** ****** ****** ****** ****** ******
      ****** ****** ****** ****** ****** ****** ****** ****** ****** ******
      ****** ****** ****** ****** ****** ****** ****** ****** ****** ******
  17  ****** ****** ****** ****** ****** ****** ****** ****** ****** ******
      ****** ****** ****** ****** ****** ****** ****** ****** ****** ******
      ****** ****** ****** ****** ****** ****** ****** ****** ****** ******
  18  ****** ****** ****** ****** ****** ****** ****** ****** ****** ******
      ****** ****** ****** ****** ****** ****** ****** ****** ****** ******
      ****** ****** ****** ****** ****** ****** ****** ****** ****** ******
  19  ****** ****** ****** ****** ****** ****** ****** ****** ****** ******
      ****** ****** ****** ****** ****** ****** ****** ****** ****** ******
      ****** ****** ****** ****** ****** ****** ****** ****** ****** ******
  20  ****** ****** ****** ****** ****** ****** ****** ****** ****** ******
      ****** ****** ****** ****** ****** ****** ****** ****** ****** ******
      ****** ****** ****** ****** ****** ****** ****** ****** ****** ******
  21  ****** ****** ****** ****** ****** ****** ****** ****** ****** ******
      ****** ****** ****** ****** ****** ****** ****** ****** ****** ******
      ****** ****** ****** ****** ****** ****** ****** ****** ****** ******
  22  ****** ****** ****** ****** ****** ****** ****** ****** ****** ******
      ****** ****** ****** ****** ****** ****** ****** ****** ****** ******
      ****** ****** ****** ****** ****** ****** ****** ****** ****** ******
  23  ****** ****** ****** ****** ****** ****** ****** ****** ****** ******
      ****** ****** ****** ****** ****** ****** ****** ****** ****** ******
      ****** ****** ****** ****** ****** ****** ****** ****** ****** ******
  24  ****** ****** ****** ****** ****** ****** ****** ****** ****** ******
      ****** ****** ****** ****** ****** ****** ****** ****** ****** ******
      ****** ****** ****** ****** ****** ****** ****** ****** ****** ******
  25  ****** ****** ****** ****** ****** ****** ****** ****** ****** ******
      ****** ****** ****** ****** ****** ****** ****** ****** ****** ******
      ****** ****** ****** ****** ****** ****** ****** ****** ****** ******

 HEAD WILL BE SAVED ON UNIT   51 AT END OF TIME STEP    1, STRESS PERIOD    4
1
  VOLUMETRIC BUDGET FOR ENTIRE MODEL AT END OF TIME STEP    1, STRESS PERIOD   4
  ------------------------------------------------------------------------------

     CUMULATIVE VOLUMES      L**3       RATES FOR THIS TIME STEP      L**3/T
     ------------------                 ------------------------

           IN:                                      IN:
           ---                                      ---
             STORAGE =    30732676.1496               STORAGE =       21148.1746
       CONSTANT HEAD =     7988664.2477         CONSTANT HEAD =       29810.8303
               WELLS =           0.0000                 WELLS =           0.0000
            RECHARGE =     8804400.0000              RECHARGE =       27600.0000
      STREAM LEAKAGE =     3683644.5118        STREAM LEAKAGE =       14797.4709

            TOTAL IN =    51209384.9091              TOTAL IN =       93356.4757

          OUT:                                     OUT:
          ----                                     ----
             STORAGE =        1119.6882               STORAGE =          12.3043
       CONSTANT HEAD =           0.0000         CONSTANT HEAD =           0.0000
               WELLS =    14659259.1196                 WELLS =       40162.3538
            RECHARGE =           0.0000              RECHARGE =           0.0000
      STREAM LEAKAGE =    36549008.1599        STREAM LEAKAGE =       53181.8187

           TOTAL OUT =    51209386.9676             TOTAL OUT =       93356.4767

            IN - OUT =          -2.0586              IN - OUT =      -1.0021E-03

 PERCENT DISCREPANCY =          -0.00     PERCENT DISCREPANCY =          -0.00






         TIME SUMMARY AT END OF TIME STEP    1 IN STRESS PERIOD    4
                    SECONDS     MINUTES      HOURS       DAYS        YEARS
                    -----------------------------------------------------------
   TIME STEP LENGTH 7.86240E+06 1.31040E+05  2184.0      91.000     0.24914    
 STRESS PERIOD TIME 7.86240E+06 1.31040E+05  2184.0      91.000     0.24914    
         TOTAL TIME 3.15360E+07 5.25600E+05  8760.0      365.00     0.99932    
1
1
                            STRESS PERIOD NO.    5, LENGTH =   92.00000    
                            -----------------------------------------------

                              NUMBER OF TIME STEPS =     1

                               MULTIPLIER FOR DELT =     1.500

                            INITIAL TIME STEP SIZE =   92.00000    

 WELL NO.  LAYER   ROW   COL   STRESS RATE         
 --------------------------------------------------
      1      1     10     24     -0.1046E+05
      2      1      7      8      -7751.    
      3      1      5     20      -7335.    
      4      1     11     21     -0.1462E+05

      4 WELLS

                 RECHARGE =  5.000000E-04

 REUSING STREAM SEGMENT DATA FROM LAST STRESS PERIOD
 
 SOLVING FOR HEAD 


     7 CALLS TO PCG ROUTINE FOR TIME STEP   1 IN STRESS PERIOD    5
    26 TOTAL ITERATIONS

 OUTPUT CONTROL FOR STRESS PERIOD    5   TIME STEP    1
    SAVE BUDGET
    SAVE HEAD FOR ALL LAYERS
    PRINT HEAD FOR ALL LAYERS
 UBDSV2 SAVING "STREAMFLOW OUT  " ON UNIT  50 AT TIME STEP  1, STRESS PERIOD   5



 STREAM LISTING     PERIOD      5   STEP        1

 LAYER ROW COL. STREAM  RCH.  FLOW INTO     FLOW TO   FLOW OUT OF   OVRLND.     DIRECT     STREAM       STREAM     STREAM     STREAM   STREAMBED  STREAMBED
                SEG.NO.  NO.  STRM. RCH.    AQUIFER    STRM. RCH.    RUNOFF     PRECIP       ET          HEAD       DEPTH      WIDTH   CONDCTNC.   GRADIENT

   1   13    1     1     1    1.0000E+05 -1.5750E+03   1.0157E+05  0.000E+00  0.000E+00  0.000E+00  4.84067E+01  1.453E-01  2.000E+01  2.000E+04 -7.875E-02
   1   13    2     1     2    1.0157E+05 -2.5419E+03   1.0412E+05  0.000E+00  0.000E+00  0.000E+00  4.79312E+01  1.471E-01  2.000E+01  2.000E+04 -1.271E-01
   1   14    3     1     3    1.0412E+05 -4.5820E+02   1.0458E+05  0.000E+00  0.000E+00  0.000E+00  4.74552E+01  1.484E-01  2.000E+01  2.000E+04 -2.291E-02
   1   15    4     1     4    1.0458E+05 -4.4347E+02   1.0502E+05  0.000E+00  0.000E+00  0.000E+00  4.69783E+01  1.488E-01  2.000E+01  2.000E+04 -2.217E-02
   1   16    5     1     5    1.0502E+05 -1.7316E+03   1.0675E+05  0.000E+00  0.000E+00  0.000E+00  4.65020E+01  1.497E-01  2.000E+01  2.000E+04 -8.658E-02
   1   16    6     1     6    1.0675E+05 -1.0952E+03   1.0785E+05  0.000E+00  0.000E+00  0.000E+00  4.60259E+01  1.509E-01  2.000E+01  2.000E+04 -5.476E-02
   1   16    7     1     7    1.0785E+05 -1.0796E+03   1.0893E+05  0.000E+00  0.000E+00  0.000E+00  4.55495E+01  1.518E-01  2.000E+01  2.000E+04 -5.398E-02
   1   16    8     1     8    1.0893E+05 -1.0790E+03   1.1000E+05  0.000E+00  0.000E+00  0.000E+00  4.50732E+01  1.527E-01  2.000E+01  2.000E+04 -5.395E-02
   1   16    9     1     9    1.1000E+05 -1.0743E+03   1.1108E+05  0.000E+00  0.000E+00  0.000E+00  4.45968E+01  1.536E-01  2.000E+01  2.000E+04 -5.371E-02
   1   16   10     1    10    1.1108E+05 -1.0662E+03   1.1214E+05  0.000E+00  0.000E+00  0.000E+00  4.41204E+01  1.545E-01  2.000E+01  2.000E+04 -5.331E-02
   1   16   11     1    11    1.1214E+05 -1.0781E+03   1.1322E+05  0.000E+00  0.000E+00  0.000E+00  4.36440E+01  1.554E-01  2.000E+01  2.000E+04 -5.390E-02
   1   16   12     1    12    1.1322E+05 -1.8307E+03   1.1505E+05  0.000E+00  0.000E+00  0.000E+00  4.31680E+01  1.566E-01  2.000E+01  2.000E+04 -9.153E-02
   1   15   13     1    13    1.1505E+05 -1.5797E+03   1.1663E+05  0.000E+00  0.000E+00  0.000E+00  4.26921E+01  1.580E-01  2.000E+01  2.000E+04 -7.899E-02
   1   14   14     1    14    1.1663E+05 -1.6819E+03   1.1831E+05  0.000E+00  0.000E+00  0.000E+00  4.22161E+01  1.593E-01  2.000E+01  2.000E+04 -8.410E-02
   1   13   15     1    15    1.1831E+05 -1.7488E+03   1.2006E+05  0.000E+00  0.000E+00  0.000E+00  4.17403E+01  1.607E-01  2.000E+01  2.000E+04 -8.744E-02
   1   12   16     1    16    1.2006E+05 -1.7965E+03   1.2186E+05  0.000E+00  0.000E+00  0.000E+00  4.12644E+01  1.621E-01  2.000E+01  2.000E+04 -8.983E-02
   1   12   17     1    17    1.2186E+05 -9.8202E+02   1.2284E+05  0.000E+00  0.000E+00  0.000E+00  4.07883E+01  1.633E-01  2.000E+01  2.000E+04 -4.910E-02
   1   12   18     1    18    1.2284E+05 -5.3318E+02   1.2338E+05  0.000E+00  0.000E+00  0.000E+00  4.03116E+01  1.639E-01  2.000E+01  2.000E+04 -2.666E-02
   1   12   19     1    19    1.2338E+05  1.3287E+03   1.2205E+05  0.000E+00  0.000E+00  0.000E+00  3.98340E+01  1.636E-01  2.000E+01  2.000E+04  6.643E-02
   1   13   20     1    20    1.2205E+05  1.1133E+03   1.2093E+05  0.000E+00  0.000E+00  0.000E+00  3.93558E+01  1.626E-01  2.000E+01  2.000E+04  5.567E-02
   1   14   21     1    21    1.2093E+05 -5.6974E+02   1.2150E+05  0.000E+00  0.000E+00  0.000E+00  3.88783E+01  1.624E-01  2.000E+01  2.000E+04 -2.849E-02
   1   14   22     1    22    1.2150E+05  5.3768E+03   1.1613E+05  0.000E+00  0.000E+00  0.000E+00  3.83991E+01  1.604E-01  2.000E+01  2.000E+04  2.688E-01
   1    9   30     2     1    5.0000E+04 -2.6404E+02   5.0264E+04  0.000E+00  0.000E+00  0.000E+00  4.02410E+01  1.160E-01  2.000E+01  2.000E+04 -1.320E-02
   1    9   29     2     2    5.0264E+04 -5.0904E+02   5.0773E+04  0.000E+00  0.000E+00  0.000E+00  3.99916E+01  1.166E-01  2.000E+01  2.000E+04 -2.545E-02
   1    9   28     2     3    5.0773E+04 -6.1150E+02   5.1385E+04  0.000E+00  0.000E+00  0.000E+00  3.97424E+01  1.174E-01  2.000E+01  2.000E+04 -3.058E-02
   1    9   27     2     4    5.1385E+04 -7.4103E+02   5.2126E+04  0.000E+00  0.000E+00  0.000E+00  3.94933E+01  1.183E-01  2.000E+01  2.000E+04 -3.705E-02
   1   10   26     2     5    5.2126E+04  1.2749E+03   5.0851E+04  0.000E+00  0.000E+00  0.000E+00  3.92429E+01  1.179E-01  2.000E+01  2.000E+04  6.375E-02
   1   11   25     2     6    5.0851E+04  2.7741E+03   4.8077E+04  0.000E+00  0.000E+00  0.000E+00  3.89901E+01  1.151E-01  2.000E+01  2.000E+04  1.387E-01
   1   12   24     2     7    4.8077E+04  2.6591E+03   4.5417E+04  0.000E+00  0.000E+00  0.000E+00  3.87363E+01  1.113E-01  2.000E+01  2.000E+04  1.330E-01
   1   13   23     2     8    4.5417E+04  3.6662E+02   4.5051E+04  0.000E+00  0.000E+00  0.000E+00  3.84841E+01  1.091E-01  2.000E+01  2.000E+04  1.833E-02
   1   14   22     2     9    4.5051E+04  2.0429E+03   4.3008E+04  0.000E+00  0.000E+00  0.000E+00  3.82324E+01  1.074E-01  2.000E+01  2.000E+04  1.021E-01
   1   14   22     3     1    1.5913E+05 -8.2715E+03   1.6741E+05  0.000E+00  0.000E+00  0.000E+00  3.77166E+01  1.611E-01  2.000E+01  2.000E+04 -4.136E-01
   1   15   23     3     2    1.6741E+05 -5.5224E+02   1.6796E+05  0.000E+00  0.000E+00  0.000E+00  3.68303E+01  1.637E-01  2.000E+01  2.000E+04 -2.761E-02
   1   15   24     3     3    1.6796E+05 -2.7420E+02   1.6823E+05  0.000E+00  0.000E+00  0.000E+00  3.59417E+01  1.639E-01  2.000E+01  2.000E+04 -1.371E-02
   1   15   25     3     4    1.6823E+05 -2.6269E+02   1.6849E+05  0.000E+00  0.000E+00  0.000E+00  3.50530E+01  1.641E-01  2.000E+01  2.000E+04 -1.313E-02
   1   15   26     3     5    1.6849E+05 -3.0637E+02   1.6880E+05  0.000E+00  0.000E+00  0.000E+00  3.41642E+01  1.642E-01  2.000E+01  2.000E+04 -1.532E-02
   1   16   27     3     6    1.6880E+05 -3.4677E+02   1.6915E+05  0.000E+00  0.000E+00  0.000E+00  3.32755E+01  1.644E-01  2.000E+01  2.000E+04 -1.734E-02
   1   17   28     3     7    1.6915E+05 -1.5283E+03   1.7068E+05  0.000E+00  0.000E+00  0.000E+00  3.23872E+01  1.650E-01  2.000E+01  2.000E+04 -7.642E-02
   1   18   29     3     8    1.7068E+05 -2.9868E+03   1.7366E+05  0.000E+00  0.000E+00  0.000E+00  3.14996E+01  1.663E-01  2.000E+01  2.000E+04 -1.493E-01
   1   18   30     3     9    1.7366E+05 -3.2052E+03   1.7687E+05  0.000E+00  0.000E+00  0.000E+00  3.06125E+01  1.681E-01  2.000E+01  2.000E+04 -1.603E-01



1
              HEAD IN LAYER   1 AT END OF TIME STEP   1 IN STRESS PERIOD    5
  ---------------------------------------------------------------------------

          1      2      3      4      5      6      7      8      9     10
         11     12     13     14     15     16     17     18     19     20
         21     22     23     24     25     26     27     28     29     30
 .........................................................................
   1  ****** ****** ****** ****** ****** ****** ****** ****** ****** ******
      ****** ****** ****** ****** ****** ****** ****** ****** ****** ******
      ****** ****** ****** ****** ****** ****** ****** ****** ****** ******
   2  ****** ****** ****** ****** ****** ****** ****** ****** ****** ******
      ****** ****** ****** ****** ****** ****** ****** ****** ****** ******
      ****** ****** ****** ****** ****** ****** ****** ****** ****** ******
   3  ****** ****** ****** ****** ****** ****** ****** ****** ****** ******
      ****** ****** ****** ****** ****** ****** ****** ****** ****** ******
      ****** ****** ****** ****** ****** ****** ****** ****** ****** ******
   4  ****** ****** ****** ****** ****** ****** ****** ****** ****** ******
      ****** ****** ****** ****** ****** ****** ****** ****** ****** ******
      ****** ****** ****** ****** ****** ****** ****** ****** ****** ******
   5  ****** ****** ****** ****** ****** ****** ****** ****** ****** ******
      ****** ****** ****** ****** ****** ****** ****** ****** ****** ******
      ****** ****** ****** ****** ****** ****** ****** ****** ****** ******
   6  ****** ****** ****** ****** ****** ****** ****** ****** ****** ******
      ****** ****** ****** ****** ****** ****** ****** ****** ****** ******
      ****** ****** ****** ****** ****** ****** ****** ****** ****** ******
   7  ****** ****** ****** ****** ****** ****** ****** ****** ****** ******
      ****** ****** ****** ****** ****** ****** ****** ****** ****** ******
      ****** ****** ****** ****** ****** ****** ****** ****** ****** ******
   8  ****** ****** ****** ****** ****** ****** ****** ****** ****** ******
      ****** ****** ****** ****** ****** ****** ****** ****** ****** ******
      ****** ****** ****** ****** ****** ****** ****** ****** ****** ******
   9  ****** ****** ****** ****** ****** ****** ****** ****** ****** ******
      ****** ****** ****** ****** ****** ****** ****** ****** ****** ******
      ****** ****** ****** ****** ****** ****** ****** ****** ****** ******
  10  ****** ****** ****** ****** ****** ****** ****** ****** ****** ******
      ****** ****** ****** ****** ****** ****** ****** ****** ****** ******
      ****** ****** ****** ****** ****** ****** ****** ****** ****** ******
  11  ****** ****** ****** ****** ****** ****** ****** ****** ****** ******
      ****** ****** ****** ****** ****** ****** ****** ****** ****** ******
      ****** ****** ****** ****** ****** ****** ****** ****** ****** ******
  12  ****** ****** ****** ****** ****** ****** ****** ****** ****** ******
      ****** ****** ****** ****** ****** ****** ****** ****** ****** ******
      ****** ****** ****** ****** ****** ****** ****** ****** ****** ******
  13  ****** ****** ****** ****** ****** ****** ****** ****** ****** ******
      ****** ****** ****** ****** ****** ****** ****** ****** ****** ******
      ****** ****** ****** ****** ****** ****** ****** ****** ****** ******
  14  ****** ****** ****** ****** ****** ****** ****** ****** ****** ******
      ****** ****** ****** ****** ****** ****** ****** ****** ****** ******
      ****** ****** ****** ****** ****** ****** ****** ****** ****** ******
  15  ****** ****** ****** ****** ****** ****** ****** ****** ****** ******
      ****** ****** ****** ****** ****** ****** ****** ****** ****** ******
      ****** ****** ****** ****** ****** ****** ****** ****** ****** ******
  16  ****** ****** ****** ****** ****** ****** ****** ****** ****** ******
      ****** ****** ****** ****** ****** ****** ****** ****** ****** ******
      ****** ****** ****** ****** ****** ****** ****** ****** ****** ******
  17  ****** ****** ****** ****** ****** ****** ****** ****** ****** ******
      ****** ****** ****** ****** ****** ****** ****** ****** ****** ******
      ****** ****** ****** ****** ****** ****** ****** ****** ****** ******
  18  ****** ****** ****** ****** ****** ****** ****** ****** ****** ******
      ****** ****** ****** ****** ****** ****** ****** ****** ****** ******
      ****** ****** ****** ****** ****** ****** ****** ****** ****** ******
  19  ****** ****** ****** ****** ****** ****** ****** ****** ****** ******
      ****** ****** ****** ****** ****** ****** ****** ****** ****** ******
      ****** ****** ****** ****** ****** ****** ****** ****** ****** ******
  20  ****** ****** ****** ****** ****** ****** ****** ****** ****** ******
      ****** ****** ****** ****** ****** ****** ****** ****** ****** ******
      ****** ****** ****** ****** ****** ****** ****** ****** ****** ******
  21  ****** ****** ****** ****** ****** ****** ****** ****** ****** ******
      ****** ****** ****** ****** ****** ****** ****** ****** ****** ******
      ****** ****** ****** ****** ****** ****** ****** ****** ****** ******
  22  ****** ****** ****** ****** ****** ****** ****** ****** ****** ******
      ****** ****** ****** ****** ****** ****** ****** ****** ****** ******
      ****** ****** ****** ****** ****** ****** ****** ****** ****** ******
  23  ****** ****** ****** ****** ****** ****** ****** ****** ****** ******
      ****** ****** ****** ****** ****** ****** ****** ****** ****** ******
      ****** ****** ****** ****** ****** ****** ****** ****** ****** ******
  24  ****** ****** ****** ****** ****** ****** ****** ****** ****** ******
      ****** ****** ****** ****** ****** ****** ****** ****** ****** ******
      ****** ****** ****** ****** ****** ****** ****** ****** ****** ******
  25  ****** ****** ****** ****** ****** ****** ****** ****** ****** ******
      ****** ****** ****** ****** ****** ****** ****** ****** ****** ******
      ****** ****** ****** ****** ****** ****** ****** ****** ****** ******

 HEAD WILL BE SAVED ON UNIT   51 AT END OF TIME STEP    1, STRESS PERIOD    5
1
  VOLUMETRIC BUDGET FOR ENTIRE MODEL AT END OF TIME STEP    1, STRESS PERIOD   5
  ------------------------------------------------------------------------------

     CUMULATIVE VOLUMES      L**3       RATES FOR THIS TIME STEP      L**3/T
     ------------------                 ------------------------

           IN:                                      IN:
           ---                                      ---
             STORAGE =    32597428.8691               STORAGE =       20269.0513
       CONSTANT HEAD =    11021136.3293         CONSTANT HEAD =       32961.6531
               WELLS =           0.0000                 WELLS =           0.0000
            RECHARGE =    10074000.0000              RECHARGE =       13800.0000
      STREAM LEAKAGE =     5241799.4064        STREAM LEAKAGE =       16936.4662

            TOTAL IN =    58934364.6048              TOTAL IN =       83967.1706

          OUT:                                     OUT:
          ----                                     ----
             STORAGE =        1119.6882               STORAGE =           0.0000
       CONSTANT HEAD =           0.0000         CONSTANT HEAD =           0.0000
               WELLS =    18354195.6648                 WELLS =       40162.3538
            RECHARGE =           0.0000              RECHARGE =           0.0000
      STREAM LEAKAGE =    40579051.6265        STREAM LEAKAGE =       43804.8203

           TOTAL OUT =    58934366.9795             TOTAL OUT =       83967.1740

            IN - OUT =          -2.3747              IN - OUT =      -3.4361E-03

 PERCENT DISCREPANCY =          -0.00     PERCENT DISCREPANCY =          -0.00






         TIME SUMMARY AT END OF TIME STEP    1 IN STRESS PERIOD    5
                    SECONDS     MINUTES      HOURS       DAYS        YEARS
                    -----------------------------------------------------------
   TIME STEP LENGTH 7.94880E+06 1.32480E+05  2208.0      92.000     0.25188    
 STRESS PERIOD TIME 7.94880E+06 1.32480E+05  2208.0      92.000     0.25188    
         TOTAL TIME 3.94848E+07 6.58080E+05  10968.      457.00      1.2512    
1
1
                            STRESS PERIOD NO.    6, LENGTH =   91.00000    
                            -----------------------------------------------

                              NUMBER OF TIME STEPS =     1

                               MULTIPLIER FOR DELT =     1.500

                            INITIAL TIME STEP SIZE =   91.00000    

 WELL NO.  LAYER   ROW   COL   STRESS RATE         
 --------------------------------------------------
      1      1     10     24     -0.1046E+05
      2      1      7      8      -7751.    
      3      1      5     20      -7335.    
      4      1     11     21     -0.1462E+05

      4 WELLS

                 RECHARGE =  2.000000E-03

 REUSING STREAM SEGMENT DATA FROM LAST STRESS PERIOD
 
 SOLVING FOR HEAD 


     7 CALLS TO PCG ROUTINE FOR TIME STEP   1 IN STRESS PERIOD    6
    26 TOTAL ITERATIONS

 OUTPUT CONTROL FOR STRESS PERIOD    6   TIME STEP    1
    SAVE BUDGET
    SAVE HEAD FOR ALL LAYERS
    PRINT HEAD FOR ALL LAYERS
 UBDSV2 SAVING "STREAMFLOW OUT  " ON UNIT  50 AT TIME STEP  1, STRESS PERIOD   6



 STREAM LISTING     PERIOD      6   STEP        1

 LAYER ROW COL. STREAM  RCH.  FLOW INTO     FLOW TO   FLOW OUT OF   OVRLND.     DIRECT     STREAM       STREAM     STREAM     STREAM   STREAMBED  STREAMBED
                SEG.NO.  NO.  STRM. RCH.    AQUIFER    STRM. RCH.    RUNOFF     PRECIP       ET          HEAD       DEPTH      WIDTH   CONDCTNC.   GRADIENT

   1   13    1     1     1    1.0000E+05 -1.8396E+03   1.0184E+05  0.000E+00  0.000E+00  0.000E+00  4.84068E+01  1.454E-01  2.000E+01  2.000E+04 -9.198E-02
   1   13    2     1     2    1.0184E+05 -2.8287E+03   1.0467E+05  0.000E+00  0.000E+00  0.000E+00  4.79315E+01  1.475E-01  2.000E+01  2.000E+04 -1.414E-01
   1   14    3     1     3    1.0467E+05 -6.0582E+02   1.0527E+05  0.000E+00  0.000E+00  0.000E+00  4.74557E+01  1.489E-01  2.000E+01  2.000E+04 -3.029E-02
   1   15    4     1     4    1.0527E+05 -6.0456E+02   1.0588E+05  0.000E+00  0.000E+00  0.000E+00  4.69790E+01  1.494E-01  2.000E+01  2.000E+04 -3.023E-02
   1   16    5     1     5    1.0588E+05 -2.2277E+03   1.0811E+05  0.000E+00  0.000E+00  0.000E+00  4.65029E+01  1.506E-01  2.000E+01  2.000E+04 -1.114E-01
   1   16    6     1     6    1.0811E+05 -1.3835E+03   1.0949E+05  0.000E+00  0.000E+00  0.000E+00  4.60272E+01  1.522E-01  2.000E+01  2.000E+04 -6.917E-02
   1   16    7     1     7    1.0949E+05 -1.3522E+03   1.1084E+05  0.000E+00  0.000E+00  0.000E+00  4.55510E+01  1.533E-01  2.000E+01  2.000E+04 -6.761E-02
   1   16    8     1     8    1.1084E+05 -1.3472E+03   1.1219E+05  0.000E+00  0.000E+00  0.000E+00  4.50749E+01  1.544E-01  2.000E+01  2.000E+04 -6.736E-02
   1   16    9     1     9    1.1219E+05 -1.3429E+03   1.1353E+05  0.000E+00  0.000E+00  0.000E+00  4.45987E+01  1.555E-01  2.000E+01  2.000E+04 -6.714E-02
   1   16   10     1    10    1.1353E+05 -1.3378E+03   1.1487E+05  0.000E+00  0.000E+00  0.000E+00  4.41226E+01  1.566E-01  2.000E+01  2.000E+04 -6.689E-02
   1   16   11     1    11    1.1487E+05 -1.3548E+03   1.1622E+05  0.000E+00  0.000E+00  0.000E+00  4.36464E+01  1.578E-01  2.000E+01  2.000E+04 -6.774E-02
   1   16   12     1    12    1.1622E+05 -2.2757E+03   1.1850E+05  0.000E+00  0.000E+00  0.000E+00  4.31706E+01  1.592E-01  2.000E+01  2.000E+04 -1.138E-01
   1   15   13     1    13    1.1850E+05 -2.0210E+03   1.2052E+05  0.000E+00  0.000E+00  0.000E+00  4.26951E+01  1.610E-01  2.000E+01  2.000E+04 -1.011E-01
   1   14   14     1    14    1.2052E+05 -2.1081E+03   1.2263E+05  0.000E+00  0.000E+00  0.000E+00  4.22195E+01  1.626E-01  2.000E+01  2.000E+04 -1.054E-01
   1   13   15     1    15    1.2263E+05 -2.1460E+03   1.2478E+05  0.000E+00  0.000E+00  0.000E+00  4.17439E+01  1.643E-01  2.000E+01  2.000E+04 -1.073E-01
   1   12   16     1    16    1.2478E+05 -2.1306E+03   1.2691E+05  0.000E+00  0.000E+00  0.000E+00  4.12683E+01  1.660E-01  2.000E+01  2.000E+04 -1.065E-01
   1   12   17     1    17    1.2691E+05 -1.2705E+03   1.2818E+05  0.000E+00  0.000E+00  0.000E+00  4.07924E+01  1.674E-01  2.000E+01  2.000E+04 -6.352E-02
   1   12   18     1    18    1.2818E+05 -8.2940E+02   1.2901E+05  0.000E+00  0.000E+00  0.000E+00  4.03159E+01  1.682E-01  2.000E+01  2.000E+04 -4.147E-02
   1   12   19     1    19    1.2901E+05  9.6147E+02   1.2804E+05  0.000E+00  0.000E+00  0.000E+00  3.98386E+01  1.682E-01  2.000E+01  2.000E+04  4.807E-02
   1   13   20     1    20    1.2804E+05  6.9962E+02   1.2734E+05  0.000E+00  0.000E+00  0.000E+00  3.93607E+01  1.675E-01  2.000E+01  2.000E+04  3.498E-02
   1   14   21     1    21    1.2734E+05 -9.8521E+02   1.2833E+05  0.000E+00  0.000E+00  0.000E+00  3.88835E+01  1.676E-01  2.000E+01  2.000E+04 -4.926E-02
   1   14   22     1    22    1.2833E+05  5.2660E+03   1.2306E+05  0.000E+00  0.000E+00  0.000E+00  3.84046E+01  1.659E-01  2.000E+01  2.000E+04  2.633E-01
   1    9   30     2     1    5.0000E+04 -6.1904E+02   5.0619E+04  0.000E+00  0.000E+00  0.000E+00  4.02413E+01  1.163E-01  2.000E+01  2.000E+04 -3.095E-02
   1    9   29     2     2    5.0619E+04 -8.5906E+02   5.1478E+04  0.000E+00  0.000E+00  0.000E+00  3.99923E+01  1.173E-01  2.000E+01  2.000E+04 -4.295E-02
   1    9   28     2     3    5.1478E+04 -9.5314E+02   5.2431E+04  0.000E+00  0.000E+00  0.000E+00  3.97436E+01  1.186E-01  2.000E+01  2.000E+04 -4.766E-02
   1    9   27     2     4    5.2431E+04 -1.1646E+03   5.3596E+04  0.000E+00  0.000E+00  0.000E+00  3.94950E+01  1.200E-01  2.000E+01  2.000E+04 -5.823E-02
   1   10   26     2     5    5.3596E+04  8.2282E+02   5.2773E+04  0.000E+00  0.000E+00  0.000E+00  3.92452E+01  1.202E-01  2.000E+01  2.000E+04  4.114E-02
   1   11   25     2     6    5.2773E+04  2.3351E+03   5.0438E+04  0.000E+00  0.000E+00  0.000E+00  3.89931E+01  1.181E-01  2.000E+01  2.000E+04  1.168E-01
   1   12   24     2     7    5.0438E+04  2.2646E+03   4.8173E+04  0.000E+00  0.000E+00  0.000E+00  3.87399E+01  1.149E-01  2.000E+01  2.000E+04  1.132E-01
   1   13   23     2     8    4.8173E+04  2.3117E+02   4.7942E+04  0.000E+00  0.000E+00  0.000E+00  3.84881E+01  1.131E-01  2.000E+01  2.000E+04  1.156E-02
   1   14   22     2     9    4.7942E+04  1.9073E+03   4.6035E+04  0.000E+00  0.000E+00  0.000E+00  3.82366E+01  1.116E-01  2.000E+01  2.000E+04  9.536E-02
   1   14   22     3     1    1.6910E+05 -8.3753E+03   1.7747E+05  0.000E+00  0.000E+00  0.000E+00  3.77225E+01  1.669E-01  2.000E+01  2.000E+04 -4.188E-01
   1   15   23     3     2    1.7747E+05 -6.9144E+02   1.7817E+05  0.000E+00  0.000E+00  0.000E+00  3.68362E+01  1.695E-01  2.000E+01  2.000E+04 -3.457E-02
   1   15   24     3     3    1.7817E+05 -3.9717E+02   1.7856E+05  0.000E+00  0.000E+00  0.000E+00  3.59476E+01  1.699E-01  2.000E+01  2.000E+04 -1.986E-02
   1   15   25     3     4    1.7856E+05 -3.9000E+02   1.7895E+05  0.000E+00  0.000E+00  0.000E+00  3.50590E+01  1.701E-01  2.000E+01  2.000E+04 -1.950E-02
   1   15   26     3     5    1.7895E+05 -4.5832E+02   1.7941E+05  0.000E+00  0.000E+00  0.000E+00  3.41703E+01  1.703E-01  2.000E+01  2.000E+04 -2.292E-02
   1   16   27     3     6    1.7941E+05 -5.1655E+02   1.7993E+05  0.000E+00  0.000E+00  0.000E+00  3.32817E+01  1.706E-01  2.000E+01  2.000E+04 -2.583E-02
   1   17   28     3     7    1.7993E+05 -1.9951E+03   1.8192E+05  0.000E+00  0.000E+00  0.000E+00  3.23935E+01  1.713E-01  2.000E+01  2.000E+04 -9.975E-02
   1   18   29     3     8    1.8192E+05 -3.4352E+03   1.8536E+05  0.000E+00  0.000E+00  0.000E+00  3.15062E+01  1.729E-01  2.000E+01  2.000E+04 -1.718E-01
   1   18   30     3     9    1.8536E+05 -3.5668E+03   1.8892E+05  0.000E+00  0.000E+00  0.000E+00  3.06193E+01  1.748E-01  2.000E+01  2.000E+04 -1.783E-01



1
              HEAD IN LAYER   1 AT END OF TIME STEP   1 IN STRESS PERIOD    6
  ---------------------------------------------------------------------------

          1      2      3      4      5      6      7      8      9     10
         11     12     13     14     15     16     17     18     19     20
         21     22     23     24     25     26     27     28     29     30
 .........................................................................
   1  ****** ****** ****** ****** ****** ****** ****** ****** ****** ******
      ****** ****** ****** ****** ****** ****** ****** ****** ****** ******
      ****** ****** ****** ****** ****** ****** ****** ****** ****** ******
   2  ****** ****** ****** ****** ****** ****** ****** ****** ****** ******
      ****** ****** ****** ****** ****** ****** ****** ****** ****** ******
      ****** ****** ****** ****** ****** ****** ****** ****** ****** ******
   3  ****** ****** ****** ****** ****** ****** ****** ****** ****** ******
      ****** ****** ****** ****** ****** ****** ****** ****** ****** ******
      ****** ****** ****** ****** ****** ****** ****** ****** ****** ******
   4  ****** ****** ****** ****** ****** ****** ****** ****** ****** ******
      ****** ****** ****** ****** ****** ****** ****** ****** ****** ******
      ****** ****** ****** ****** ****** ****** ****** ****** ****** ******
   5  ****** ****** ****** ****** ****** ****** ****** ****** ****** ******
      ****** ****** ****** ****** ****** ****** ****** ****** ****** ******
      ****** ****** ****** ****** ****** ****** ****** ****** ****** ******
   6  ****** ****** ****** ****** ****** ****** ****** ****** ****** ******
      ****** ****** ****** ****** ****** ****** ****** ****** ****** ******
      ****** ****** ****** ****** ****** ****** ****** ****** ****** ******
   7  ****** ****** ****** ****** ****** ****** ****** ****** ****** ******
      ****** ****** ****** ****** ****** ****** ****** ****** ****** ******
      ****** ****** ****** ****** ****** ****** ****** ****** ****** ******
   8  ****** ****** ****** ****** ****** ****** ****** ****** ****** ******
      ****** ****** ****** ****** ****** ****** ****** ****** ****** ******
      ****** ****** ****** ****** ****** ****** ****** ****** ****** ******
   9  ****** ****** ****** ****** ****** ****** ****** ****** ****** ******
      ****** ****** ****** ****** ****** ****** ****** ****** ****** ******
      ****** ****** ****** ****** ****** ****** ****** ****** ****** ******
  10  ****** ****** ****** ****** ****** ****** ****** ****** ****** ******
      ****** ****** ****** ****** ****** ****** ****** ****** ****** ******
      ****** ****** ****** ****** ****** ****** ****** ****** ****** ******
  11  ****** ****** ****** ****** ****** ****** ****** ****** ****** ******
      ****** ****** ****** ****** ****** ****** ****** ****** ****** ******
      ****** ****** ****** ****** ****** ****** ****** ****** ****** ******
  12  ****** ****** ****** ****** ****** ****** ****** ****** ****** ******
      ****** ****** ****** ****** ****** ****** ****** ****** ****** ******
      ****** ****** ****** ****** ****** ****** ****** ****** ****** ******
  13  ****** ****** ****** ****** ****** ****** ****** ****** ****** ******
      ****** ****** ****** ****** ****** ****** ****** ****** ****** ******
      ****** ****** ****** ****** ****** ****** ****** ****** ****** ******
  14  ****** ****** ****** ****** ****** ****** ****** ****** ****** ******
      ****** ****** ****** ****** ****** ****** ****** ****** ****** ******
      ****** ****** ****** ****** ****** ****** ****** ****** ****** ******
  15  ****** ****** ****** ****** ****** ****** ****** ****** ****** ******
      ****** ****** ****** ****** ****** ****** ****** ****** ****** ******
      ****** ****** ****** ****** ****** ****** ****** ****** ****** ******
  16  ****** ****** ****** ****** ****** ****** ****** ****** ****** ******
      ****** ****** ****** ****** ****** ****** ****** ****** ****** ******
      ****** ****** ****** ****** ****** ****** ****** ****** ****** ******
  17  ****** ****** ****** ****** ****** ****** ****** ****** ****** ******
      ****** ****** ****** ****** ****** ****** ****** ****** ****** ******
      ****** ****** ****** ****** ****** ****** ****** ****** ****** ******
  18  ****** ****** ****** ****** ****** ****** ****** ****** ****** ******
      ****** ****** ****** ****** ****** ****** ****** ****** ****** ******
      ****** ****** ****** ****** ****** ****** ****** ****** ****** ******
  19  ****** ****** ****** ****** ****** ****** ****** ****** ****** ******
      ****** ****** ****** ****** ****** ****** ****** ****** ****** ******
      ****** ****** ****** ****** ****** ****** ****** ****** ****** ******
  20  ****** ****** ****** ****** ****** ****** ****** ****** ****** ******
      ****** ****** ****** ****** ****** ****** ****** ****** ****** ******
      ****** ****** ****** ****** ****** ****** ****** ****** ****** ******
  21  ****** ****** ****** ****** ****** ****** ****** ****** ****** ******
      ****** ****** ****** ****** ****** ****** ****** ****** ****** ******
      ****** ****** ****** ****** ****** ****** ****** ****** ****** ******
  22  ****** ****** ****** ****** ****** ****** ****** ****** ****** ******
      ****** ****** ****** ****** ****** ****** ****** ****** ****** ******
      ****** ****** ****** ****** ****** ****** ****** ****** ****** ******
  23  ****** ****** ****** ****** ****** ****** ****** ****** ****** ******
      ****** ****** ****** ****** ****** ****** ****** ****** ****** ******
      ****** ****** ****** ****** ****** ****** ****** ****** ****** ******
  24  ****** ****** ****** ****** ****** ****** ****** ****** ****** ******
      ****** ****** ****** ****** ****** ****** ****** ****** ****** ******
      ****** ****** ****** ****** ****** ****** ****** ****** ****** ******
  25  ****** ****** ****** ****** ****** ****** ****** ****** ****** ******
      ****** ****** ****** ****** ****** ****** ****** ****** ****** ******
      ****** ****** ****** ****** ****** ****** ****** ****** ****** ******

 HEAD WILL BE SAVED ON UNIT   51 AT END OF TIME STEP    1, STRESS PERIOD    6
1
  VOLUMETRIC BUDGET FOR ENTIRE MODEL AT END OF TIME STEP    1, STRESS PERIOD   6
  ------------------------------------------------------------------------------

     CUMULATIVE VOLUMES      L**3       RATES FOR THIS TIME STEP      L**3/T
     ------------------                 ------------------------

           IN:                                      IN:
           ---                                      ---
             STORAGE =    32626120.0939               STORAGE =         315.2882
       CONSTANT HEAD =    13862042.0425         CONSTANT HEAD =       31218.7441
               WELLS =           0.0000                 WELLS =           0.0000
            RECHARGE =    15097200.0000              RECHARGE =       55200.0000
      STREAM LEAKAGE =     6560221.0744        STREAM LEAKAGE =       14488.1502

            TOTAL IN =    68145583.2108              TOTAL IN =      101222.1825

          OUT:                                     OUT:
          ----                                     ----
             STORAGE =      696979.7341               STORAGE =        7646.8137
       CONSTANT HEAD =           0.0000         CONSTANT HEAD =           0.0000
               WELLS =    22008969.8563                 WELLS =       40162.3538
            RECHARGE =           0.0000              RECHARGE =           0.0000
      STREAM LEAKAGE =    45439635.7358        STREAM LEAKAGE =       53413.0122

           TOTAL OUT =    68145585.3263             TOTAL OUT =      101222.1796

            IN - OUT =          -2.1154              IN - OUT =       2.8489E-03

 PERCENT DISCREPANCY =          -0.00     PERCENT DISCREPANCY =           0.00






         TIME SUMMARY AT END OF TIME STEP    1 IN STRESS PERIOD    6
                    SECONDS     MINUTES      HOURS       DAYS        YEARS
                    -----------------------------------------------------------
   TIME STEP LENGTH 7.86240E+06 1.31040E+05  2184.0      91.000     0.24914    
 STRESS PERIOD TIME 7.86240E+06 1.31040E+05  2184.0      91.000     0.24914    
         TOTAL TIME 4.73472E+07 7.89120E+05  13152.      548.00      1.5003    
1
1
                            STRESS PERIOD NO.    7, LENGTH =   91.00000    
                            -----------------------------------------------

                              NUMBER OF TIME STEPS =     1

                               MULTIPLIER FOR DELT =     1.500

                            INITIAL TIME STEP SIZE =   91.00000    

 WELL NO.  LAYER   ROW   COL   STRESS RATE         
 --------------------------------------------------
      1      1     10     24     -0.1046E+05
      2      1      7      8      -7751.    
      3      1      5     20      -7335.    
      4      1     11     21     -0.1462E+05

      4 WELLS

                 RECHARGE =   0.00000    

 REUSING STREAM SEGMENT DATA FROM LAST STRESS PERIOD
 
 SOLVING FOR HEAD 


     7 CALLS TO PCG ROUTINE FOR TIME STEP   1 IN STRESS PERIOD    7
    26 TOTAL ITERATIONS

 OUTPUT CONTROL FOR STRESS PERIOD    7   TIME STEP    1
    SAVE BUDGET
    SAVE HEAD FOR ALL LAYERS
    PRINT HEAD FOR ALL LAYERS
 UBDSV2 SAVING "STREAMFLOW OUT  " ON UNIT  50 AT TIME STEP  1, STRESS PERIOD   7



 STREAM LISTING     PERIOD      7   STEP        1

 LAYER ROW COL. STREAM  RCH.  FLOW INTO     FLOW TO   FLOW OUT OF   OVRLND.     DIRECT     STREAM       STREAM     STREAM     STREAM   STREAMBED  STREAMBED
                SEG.NO.  NO.  STRM. RCH.    AQUIFER    STRM. RCH.    RUNOFF     PRECIP       ET          HEAD       DEPTH      WIDTH   CONDCTNC.   GRADIENT

   1   13    1     1     1    1.0000E+05 -1.1372E+03   1.0114E+05  0.000E+00  0.000E+00  0.000E+00  4.84065E+01  1.451E-01  2.000E+01  2.000E+04 -5.686E-02
   1   13    2     1     2    1.0114E+05 -2.0410E+03   1.0318E+05  0.000E+00  0.000E+00  0.000E+00  4.79306E+01  1.465E-01  2.000E+01  2.000E+04 -1.021E-01
   1   14    3     1     3    1.0318E+05 -3.4818E+02   1.0353E+05  0.000E+00  0.000E+00  0.000E+00  4.74544E+01  1.475E-01  2.000E+01  2.000E+04 -1.741E-02
   1   15    4     1     4    1.0353E+05 -3.3759E+02   1.0386E+05  0.000E+00  0.000E+00  0.000E+00  4.69774E+01  1.478E-01  2.000E+01  2.000E+04 -1.688E-02
   1   16    5     1     5    1.0386E+05 -1.4735E+03   1.0534E+05  0.000E+00  0.000E+00  0.000E+00  4.65009E+01  1.486E-01  2.000E+01  2.000E+04 -7.368E-02
   1   16    6     1     6    1.0534E+05 -9.2628E+02   1.0626E+05  0.000E+00  0.000E+00  0.000E+00  4.60246E+01  1.496E-01  2.000E+01  2.000E+04 -4.631E-02
   1   16    7     1     7    1.0626E+05 -9.1298E+02   1.0718E+05  0.000E+00  0.000E+00  0.000E+00  4.55481E+01  1.504E-01  2.000E+01  2.000E+04 -4.565E-02
   1   16    8     1     8    1.0718E+05 -9.1410E+02   1.0809E+05  0.000E+00  0.000E+00  0.000E+00  4.50716E+01  1.512E-01  2.000E+01  2.000E+04 -4.570E-02
   1   16    9     1     9    1.0809E+05 -9.1346E+02   1.0900E+05  0.000E+00  0.000E+00  0.000E+00  4.45951E+01  1.519E-01  2.000E+01  2.000E+04 -4.567E-02
   1   16   10     1    10    1.0900E+05 -9.1184E+02   1.0992E+05  0.000E+00  0.000E+00  0.000E+00  4.41186E+01  1.527E-01  2.000E+01  2.000E+04 -4.559E-02
   1   16   11     1    11    1.0992E+05 -9.2908E+02   1.1085E+05  0.000E+00  0.000E+00  0.000E+00  4.36421E+01  1.535E-01  2.000E+01  2.000E+04 -4.645E-02
   1   16   12     1    12    1.1085E+05 -1.5587E+03   1.1240E+05  0.000E+00  0.000E+00  0.000E+00  4.31659E+01  1.545E-01  2.000E+01  2.000E+04 -7.793E-02
   1   15   13     1    13    1.1240E+05 -1.2426E+03   1.1365E+05  0.000E+00  0.000E+00  0.000E+00  4.26898E+01  1.557E-01  2.000E+01  2.000E+04 -6.213E-02
   1   14   14     1    14    1.1365E+05 -1.2952E+03   1.1494E+05  0.000E+00  0.000E+00  0.000E+00  4.22135E+01  1.567E-01  2.000E+01  2.000E+04 -6.476E-02
   1   13   15     1    15    1.1494E+05 -1.3251E+03   1.1627E+05  0.000E+00  0.000E+00  0.000E+00  4.17373E+01  1.578E-01  2.000E+01  2.000E+04 -6.626E-02
   1   12   16     1    16    1.1627E+05 -1.3053E+03   1.1757E+05  0.000E+00  0.000E+00  0.000E+00  4.12611E+01  1.589E-01  2.000E+01  2.000E+04 -6.526E-02
   1   12   17     1    17    1.1757E+05 -6.7811E+02   1.1825E+05  0.000E+00  0.000E+00  0.000E+00  4.07847E+01  1.597E-01  2.000E+01  2.000E+04 -3.391E-02
   1   12   18     1    18    1.1825E+05 -2.5377E+02   1.1850E+05  0.000E+00  0.000E+00  0.000E+00  4.03078E+01  1.601E-01  2.000E+01  2.000E+04 -1.269E-02
   1   12   19     1    19    1.1850E+05  1.6651E+03   1.1684E+05  0.000E+00  0.000E+00  0.000E+00  3.98299E+01  1.595E-01  2.000E+01  2.000E+04  8.325E-02
   1   13   20     1    20    1.1684E+05  1.3739E+03   1.1547E+05  0.000E+00  0.000E+00  0.000E+00  3.93514E+01  1.582E-01  2.000E+01  2.000E+04  6.869E-02
   1   14   21     1    21    1.1547E+05 -3.2680E+02   1.1579E+05  0.000E+00  0.000E+00  0.000E+00  3.88737E+01  1.578E-01  2.000E+01  2.000E+04 -1.634E-02
   1   14   22     1    22    1.1579E+05  5.4269E+03   1.1037E+05  0.000E+00  0.000E+00  0.000E+00  3.83944E+01  1.557E-01  2.000E+01  2.000E+04  2.713E-01
   1    9   30     2     1    5.0000E+04 -1.0047E+02   5.0100E+04  0.000E+00  0.000E+00  0.000E+00  4.02409E+01  1.159E-01  2.000E+01  2.000E+04 -5.023E-03
   1    9   29     2     2    5.0100E+04 -3.4191E+02   5.0442E+04  0.000E+00  0.000E+00  0.000E+00  3.99912E+01  1.162E-01  2.000E+01  2.000E+04 -1.710E-02
   1    9   28     2     3    5.0442E+04 -4.3367E+02   5.0876E+04  0.000E+00  0.000E+00  0.000E+00  3.97418E+01  1.168E-01  2.000E+01  2.000E+04 -2.168E-02
   1    9   27     2     4    5.0876E+04 -4.5445E+02   5.1331E+04  0.000E+00  0.000E+00  0.000E+00  3.94924E+01  1.174E-01  2.000E+01  2.000E+04 -2.272E-02
   1   10   26     2     5    5.1331E+04  1.5325E+03   4.9798E+04  0.000E+00  0.000E+00  0.000E+00  3.92416E+01  1.166E-01  2.000E+01  2.000E+04  7.662E-02
   1   11   25     2     6    4.9798E+04  3.0152E+03   4.6783E+04  0.000E+00  0.000E+00  0.000E+00  3.89885E+01  1.135E-01  2.000E+01  2.000E+04  1.508E-01
   1   12   24     2     7    4.6783E+04  2.8852E+03   4.3898E+04  0.000E+00  0.000E+00  0.000E+00  3.87343E+01  1.093E-01  2.000E+01  2.000E+04  1.443E-01
   1   13   23     2     8    4.3898E+04  4.2438E+02   4.3473E+04  0.000E+00  0.000E+00  0.000E+00  3.84819E+01  1.069E-01  2.000E+01  2.000E+04  2.122E-02
   1   14   22     2     9    4.3473E+04  2.1388E+03   4.1334E+04  0.000E+00  0.000E+00  0.000E+00  3.82300E+01  1.050E-01  2.000E+01  2.000E+04  1.069E-01
   1   14   22     3     1    1.5170E+05 -8.2168E+03   1.5992E+05  0.000E+00  0.000E+00  0.000E+00  3.77122E+01  1.566E-01  2.000E+01  2.000E+04 -4.108E-01
   1   15   23     3     2    1.5992E+05 -4.8654E+02   1.6040E+05  0.000E+00  0.000E+00  0.000E+00  3.68259E+01  1.592E-01  2.000E+01  2.000E+04 -2.433E-02
   1   15   24     3     3    1.6040E+05 -2.2443E+02   1.6063E+05  0.000E+00  0.000E+00  0.000E+00  3.59372E+01  1.594E-01  2.000E+01  2.000E+04 -1.122E-02
   1   15   25     3     4    1.6063E+05 -2.1409E+02   1.6084E+05  0.000E+00  0.000E+00  0.000E+00  3.50485E+01  1.596E-01  2.000E+01  2.000E+04 -1.070E-02
   1   15   26     3     5    1.6084E+05 -2.5766E+02   1.6110E+05  0.000E+00  0.000E+00  0.000E+00  3.41597E+01  1.597E-01  2.000E+01  2.000E+04 -1.288E-02
   1   16   27     3     6    1.6110E+05 -2.8518E+02   1.6138E+05  0.000E+00  0.000E+00  0.000E+00  3.32710E+01  1.599E-01  2.000E+01  2.000E+04 -1.426E-02
   1   17   28     3     7    1.6138E+05 -1.3570E+03   1.6274E+05  0.000E+00  0.000E+00  0.000E+00  3.23826E+01  1.604E-01  2.000E+01  2.000E+04 -6.785E-02
   1   18   29     3     8    1.6274E+05 -2.7561E+03   1.6550E+05  0.000E+00  0.000E+00  0.000E+00  3.14949E+01  1.616E-01  2.000E+01  2.000E+04 -1.378E-01
   1   18   30     3     9    1.6550E+05 -3.0426E+03   1.6854E+05  0.000E+00  0.000E+00  0.000E+00  3.06077E+01  1.633E-01  2.000E+01  2.000E+04 -1.521E-01



1
              HEAD IN LAYER   1 AT END OF TIME STEP   1 IN STRESS PERIOD    7
  ---------------------------------------------------------------------------

          1      2      3      4      5      6      7      8      9     10
         11     12     13     14     15     16     17     18     19     20
         21     22     23     24     25     26     27     28     29     30
 .........................................................................
   1  ****** ****** ****** ****** ****** ****** ****** ****** ****** ******
      ****** ****** ****** ****** ****** ****** ****** ****** ****** ******
      ****** ****** ****** ****** ****** ****** ****** ****** ****** ******
   2  ****** ****** ****** ****** ****** ****** ****** ****** ****** ******
      ****** ****** ****** ****** ****** ****** ****** ****** ****** ******
      ****** ****** ****** ****** ****** ****** ****** ****** ****** ******
   3  ****** ****** ****** ****** ****** ****** ****** ****** ****** ******
      ****** ****** ****** ****** ****** ****** ****** ****** ****** ******
      ****** ****** ****** ****** ****** ****** ****** ****** ****** ******
   4  ****** ****** ****** ****** ****** ****** ****** ****** ****** ******
      ****** ****** ****** ****** ****** ****** ****** ****** ****** ******
      ****** ****** ****** ****** ****** ****** ****** ****** ****** ******
   5  ****** ****** ****** ****** ****** ****** ****** ****** ****** ******
      ****** ****** ****** ****** ****** ****** ****** ****** ****** ******
      ****** ****** ****** ****** ****** ****** ****** ****** ****** ******
   6  ****** ****** ****** ****** ****** ****** ****** ****** ****** ******
      ****** ****** ****** ****** ****** ****** ****** ****** ****** ******
      ****** ****** ****** ****** ****** ****** ****** ****** ****** ******
   7  ****** ****** ****** ****** ****** ****** ****** ****** ****** ******
      ****** ****** ****** ****** ****** ****** ****** ****** ****** ******
      ****** ****** ****** ****** ****** ****** ****** ****** ****** ******
   8  ****** ****** ****** ****** ****** ****** ****** ****** ****** ******
      ****** ****** ****** ****** ****** ****** ****** ****** ****** ******
      ****** ****** ****** ****** ****** ****** ****** ****** ****** ******
   9  ****** ****** ****** ****** ****** ****** ****** ****** ****** ******
      ****** ****** ****** ****** ****** ****** ****** ****** ****** ******
      ****** ****** ****** ****** ****** ****** ****** ****** ****** ******
  10  ****** ****** ****** ****** ****** ****** ****** ****** ****** ******
      ****** ****** ****** ****** ****** ****** ****** ****** ****** ******
      ****** ****** ****** ****** ****** ****** ****** ****** ****** ******
  11  ****** ****** ****** ****** ****** ****** ****** ****** ****** ******
      ****** ****** ****** ****** ****** ****** ****** ****** ****** ******
      ****** ****** ****** ****** ****** ****** ****** ****** ****** ******
  12  ****** ****** ****** ****** ****** ****** ****** ****** ****** ******
      ****** ****** ****** ****** ****** ****** ****** ****** ****** ******
      ****** ****** ****** ****** ****** ****** ****** ****** ****** ******
  13  ****** ****** ****** ****** ****** ****** ****** ****** ****** ******
      ****** ****** ****** ****** ****** ****** ****** ****** ****** ******
      ****** ****** ****** ****** ****** ****** ****** ****** ****** ******
  14  ****** ****** ****** ****** ****** ****** ****** ****** ****** ******
      ****** ****** ****** ****** ****** ****** ****** ****** ****** ******
      ****** ****** ****** ****** ****** ****** ****** ****** ****** ******
  15  ****** ****** ****** ****** ****** ****** ****** ****** ****** ******
      ****** ****** ****** ****** ****** ****** ****** ****** ****** ******
      ****** ****** ****** ****** ****** ****** ****** ****** ****** ******
  16  ****** ****** ****** ****** ****** ****** ****** ****** ****** ******
      ****** ****** ****** ****** ****** ****** ****** ****** ****** ******
      ****** ****** ****** ****** ****** ****** ****** ****** ****** ******
  17  ****** ****** ****** ****** ****** ****** ****** ****** ****** ******
      ****** ****** ****** ****** ****** ****** ****** ****** ****** ******
      ****** ****** ****** ****** ****** ****** ****** ****** ****** ******
  18  ****** ****** ****** ****** ****** ****** ****** ****** ****** ******
      ****** ****** ****** ****** ****** ****** ****** ****** ****** ******
      ****** ****** ****** ****** ****** ****** ****** ****** ****** ******
  19  ****** ****** ****** ****** ****** ****** ****** ****** ****** ******
      ****** ****** ****** ****** ****** ****** ****** ****** ****** ******
      ****** ****** ****** ****** ****** ****** ****** ****** ****** ******
  20  ****** ****** ****** ****** ****** ****** ****** ****** ****** ******
      ****** ****** ****** ****** ****** ****** ****** ****** ****** ******
      ****** ****** ****** ****** ****** ****** ****** ****** ****** ******
  21  ****** ****** ****** ****** ****** ****** ****** ****** ****** ******
      ****** ****** ****** ****** ****** ****** ****** ****** ****** ******
      ****** ****** ****** ****** ****** ****** ****** ****** ****** ******
  22  ****** ****** ****** ****** ****** ****** ****** ****** ****** ******
      ****** ****** ****** ****** ****** ****** ****** ****** ****** ******
      ****** ****** ****** ****** ****** ****** ****** ****** ****** ******
  23  ****** ****** ****** ****** ****** ****** ****** ****** ****** ******
      ****** ****** ****** ****** ****** ****** ****** ****** ****** ******
      ****** ****** ****** ****** ****** ****** ****** ****** ****** ******
  24  ****** ****** ****** ****** ****** ****** ****** ****** ****** ******
      ****** ****** ****** ****** ****** ****** ****** ****** ****** ******
      ****** ****** ****** ****** ****** ****** ****** ****** ****** ******
  25  ****** ****** ****** ****** ****** ****** ****** ****** ****** ******
      ****** ****** ****** ****** ****** ****** ****** ****** ****** ******
      ****** ****** ****** ****** ****** ****** ****** ****** ****** ******

 HEAD WILL BE SAVED ON UNIT   51 AT END OF TIME STEP    1, STRESS PERIOD    7
1
  VOLUMETRIC BUDGET FOR ENTIRE MODEL AT END OF TIME STEP    1, STRESS PERIOD   7
  ------------------------------------------------------------------------------

     CUMULATIVE VOLUMES      L**3       RATES FOR THIS TIME STEP      L**3/T
     ------------------                 ------------------------

           IN:                                      IN:
           ---                                      ---
             STORAGE =    34759005.6538               STORAGE =       23438.3029
       CONSTANT HEAD =    17071053.5188         CONSTANT HEAD =       35263.8624
               WELLS =           0.0000                 WELLS =           0.0000
            RECHARGE =    15097200.0000              RECHARGE =           0.0000
      STREAM LEAKAGE =     8240250.6209        STREAM LEAKAGE =       18461.8631

            TOTAL IN =    75167509.7936              TOTAL IN =       77164.0284

          OUT:                                     OUT:
          ----                                     ----
             STORAGE =      696979.7341               STORAGE =           0.0000
       CONSTANT HEAD =           0.0000         CONSTANT HEAD =           0.0000
               WELLS =    25663744.0477                 WELLS =       40162.3538
            RECHARGE =           0.0000              RECHARGE =           0.0000
      STREAM LEAKAGE =    48806788.6413        STREAM LEAKAGE =       37001.6803

           TOTAL OUT =    75167512.4232             TOTAL OUT =       77164.0340

            IN - OUT =          -2.6296              IN - OUT =      -5.6498E-03

 PERCENT DISCREPANCY =          -0.00     PERCENT DISCREPANCY =          -0.00






         TIME SUMMARY AT END OF TIME STEP    1 IN STRESS PERIOD    7
                    SECONDS     MINUTES      HOURS       DAYS        YEARS
                    -----------------------------------------------------------
   TIME STEP LENGTH 7.86240E+06 1.31040E+05  2184.0      91.000     0.24914    
 STRESS PERIOD TIME 7.86240E+06 1.31040E+05  2184.0      91.000     0.24914    
         TOTAL TIME 5.52096E+07 9.20160E+05  15336.      639.00      1.7495    
1
1
                            STRESS PERIOD NO.    8, LENGTH =   91.00000    
                            -----------------------------------------------

                              NUMBER OF TIME STEPS =     1

                               MULTIPLIER FOR DELT =     1.500

                            INITIAL TIME STEP SIZE =   91.00000    

 WELL NO.  LAYER   ROW   COL   STRESS RATE         
 --------------------------------------------------
      1      1     10     24     -0.1046E+05
      2      1      7      8      -7751.    
      3      1      5     20      -7335.    
      4      1     11     21     -0.1462E+05

      4 WELLS

                 RECHARGE =  1.000000E-03

 REUSING STREAM SEGMENT DATA FROM LAST STRESS PERIOD
 
 SOLVING FOR HEAD 


     6 CALLS TO PCG ROUTINE FOR TIME STEP   1 IN STRESS PERIOD    8
    22 TOTAL ITERATIONS

 OUTPUT CONTROL FOR STRESS PERIOD    8   TIME STEP    1
    SAVE BUDGET
    SAVE HEAD FOR ALL LAYERS
    PRINT HEAD FOR ALL LAYERS
 UBDSV2 SAVING "STREAMFLOW OUT  " ON UNIT  50 AT TIME STEP  1, STRESS PERIOD   8



 STREAM LISTING     PERIOD      8   STEP        1

 LAYER ROW COL. STREAM  RCH.  FLOW INTO     FLOW TO   FLOW OUT OF   OVRLND.     DIRECT     STREAM       STREAM     STREAM     STREAM   STREAMBED  STREAMBED
                SEG.NO.  NO.  STRM. RCH.    AQUIFER    STRM. RCH.    RUNOFF     PRECIP       ET          HEAD       DEPTH      WIDTH   CONDCTNC.   GRADIENT

   1   13    1     1     1    1.0000E+05 -1.1841E+03   1.0118E+05  0.000E+00  0.000E+00  0.000E+00  4.84065E+01  1.452E-01  2.000E+01  2.000E+04 -5.920E-02
   1   13    2     1     2    1.0118E+05 -2.0829E+03   1.0327E+05  0.000E+00  0.000E+00  0.000E+00  4.79307E+01  1.466E-01  2.000E+01  2.000E+04 -1.041E-01
   1   14    3     1     3    1.0327E+05 -4.0781E+02   1.0367E+05  0.000E+00  0.000E+00  0.000E+00  4.74545E+01  1.476E-01  2.000E+01  2.000E+04 -2.039E-02
   1   15    4     1     4    1.0367E+05 -4.0288E+02   1.0408E+05  0.000E+00  0.000E+00  0.000E+00  4.69775E+01  1.480E-01  2.000E+01  2.000E+04 -2.014E-02
   1   16    5     1     5    1.0408E+05 -1.6463E+03   1.0572E+05  0.000E+00  0.000E+00  0.000E+00  4.65011E+01  1.489E-01  2.000E+01  2.000E+04 -8.231E-02
   1   16    6     1     6    1.0572E+05 -1.0308E+03   1.0675E+05  0.000E+00  0.000E+00  0.000E+00  4.60250E+01  1.500E-01  2.000E+01  2.000E+04 -5.154E-02
   1   16    7     1     7    1.0675E+05 -1.0122E+03   1.0777E+05  0.000E+00  0.000E+00  0.000E+00  4.55486E+01  1.509E-01  2.000E+01  2.000E+04 -5.061E-02
   1   16    8     1     8    1.0777E+05 -1.0126E+03   1.0878E+05  0.000E+00  0.000E+00  0.000E+00  4.50722E+01  1.517E-01  2.000E+01  2.000E+04 -5.063E-02
   1   16    9     1     9    1.0878E+05 -1.0136E+03   1.0979E+05  0.000E+00  0.000E+00  0.000E+00  4.45957E+01  1.526E-01  2.000E+01  2.000E+04 -5.068E-02
   1   16   10     1    10    1.0979E+05 -1.0152E+03   1.1081E+05  0.000E+00  0.000E+00  0.000E+00  4.41193E+01  1.534E-01  2.000E+01  2.000E+04 -5.076E-02
   1   16   11     1    11    1.1081E+05 -1.0366E+03   1.1184E+05  0.000E+00  0.000E+00  0.000E+00  4.36429E+01  1.543E-01  2.000E+01  2.000E+04 -5.183E-02
   1   16   12     1    12    1.1184E+05 -1.7184E+03   1.1356E+05  0.000E+00  0.000E+00  0.000E+00  4.31668E+01  1.554E-01  2.000E+01  2.000E+04 -8.592E-02
   1   15   13     1    13    1.1356E+05 -1.4024E+03   1.1497E+05  0.000E+00  0.000E+00  0.000E+00  4.26908E+01  1.567E-01  2.000E+01  2.000E+04 -7.012E-02
   1   14   14     1    14    1.1497E+05 -1.4431E+03   1.1641E+05  0.000E+00  0.000E+00  0.000E+00  4.22147E+01  1.579E-01  2.000E+01  2.000E+04 -7.216E-02
   1   13   15     1    15    1.1641E+05 -1.4560E+03   1.1786E+05  0.000E+00  0.000E+00  0.000E+00  4.17386E+01  1.591E-01  2.000E+01  2.000E+04 -7.280E-02
   1   12   16     1    16    1.1786E+05 -1.3905E+03   1.1926E+05  0.000E+00  0.000E+00  0.000E+00  4.12625E+01  1.602E-01  2.000E+01  2.000E+04 -6.952E-02
   1   12   17     1    17    1.1926E+05 -7.7661E+02   1.2003E+05  0.000E+00  0.000E+00  0.000E+00  4.07861E+01  1.611E-01  2.000E+01  2.000E+04 -3.883E-02
   1   12   18     1    18    1.2003E+05 -3.6120E+02   1.2039E+05  0.000E+00  0.000E+00  0.000E+00  4.03093E+01  1.615E-01  2.000E+01  2.000E+04 -1.806E-02
   1   12   19     1    19    1.2039E+05  1.5292E+03   1.1886E+05  0.000E+00  0.000E+00  0.000E+00  3.98315E+01  1.611E-01  2.000E+01  2.000E+04  7.646E-02
   1   13   20     1    20    1.1886E+05  1.2001E+03   1.1766E+05  0.000E+00  0.000E+00  0.000E+00  3.93532E+01  1.600E-01  2.000E+01  2.000E+04  6.000E-02
   1   14   21     1    21    1.1766E+05 -4.8612E+02   1.1815E+05  0.000E+00  0.000E+00  0.000E+00  3.88756E+01  1.597E-01  2.000E+01  2.000E+04 -2.431E-02
   1   14   22     1    22    1.1815E+05  5.3772E+03   1.1277E+05  0.000E+00  0.000E+00  0.000E+00  3.83963E+01  1.577E-01  2.000E+01  2.000E+04  2.689E-01
   1    9   30     2     1    5.0000E+04 -2.6023E+02   5.0260E+04  0.000E+00  0.000E+00  0.000E+00  4.02410E+01  1.160E-01  2.000E+01  2.000E+04 -1.301E-02
   1    9   29     2     2    5.0260E+04 -4.9863E+02   5.0759E+04  0.000E+00  0.000E+00  0.000E+00  3.99916E+01  1.166E-01  2.000E+01  2.000E+04 -2.493E-02
   1    9   28     2     3    5.0759E+04 -5.8412E+02   5.1343E+04  0.000E+00  0.000E+00  0.000E+00  3.97423E+01  1.173E-01  2.000E+01  2.000E+04 -2.921E-02
   1    9   27     2     4    5.1343E+04 -6.2333E+02   5.1966E+04  0.000E+00  0.000E+00  0.000E+00  3.94932E+01  1.182E-01  2.000E+01  2.000E+04 -3.117E-02
   1   10   26     2     5    5.1966E+04  1.3349E+03   5.0631E+04  0.000E+00  0.000E+00  0.000E+00  3.92427E+01  1.177E-01  2.000E+01  2.000E+04  6.675E-02
   1   11   25     2     6    5.0631E+04  2.8187E+03   4.7813E+04  0.000E+00  0.000E+00  0.000E+00  3.89898E+01  1.148E-01  2.000E+01  2.000E+04  1.409E-01
   1   12   24     2     7    4.7813E+04  2.7074E+03   4.5105E+04  0.000E+00  0.000E+00  0.000E+00  3.87359E+01  1.109E-01  2.000E+01  2.000E+04  1.354E-01
   1   13   23     2     8    4.5105E+04  3.5126E+02   4.4754E+04  0.000E+00  0.000E+00  0.000E+00  3.84837E+01  1.087E-01  2.000E+01  2.000E+04  1.756E-02
   1   14   22     2     9    4.4754E+04  2.0885E+03   4.2665E+04  0.000E+00  0.000E+00  0.000E+00  3.82319E+01  1.069E-01  2.000E+01  2.000E+04  1.044E-01
   1   14   22     3     1    1.5544E+05 -8.2605E+03   1.6370E+05  0.000E+00  0.000E+00  0.000E+00  3.77144E+01  1.589E-01  2.000E+01  2.000E+04 -4.130E-01
   1   15   23     3     2    1.6370E+05 -5.5141E+02   1.6425E+05  0.000E+00  0.000E+00  0.000E+00  3.68282E+01  1.615E-01  2.000E+01  2.000E+04 -2.757E-02
   1   15   24     3     3    1.6425E+05 -2.8532E+02   1.6454E+05  0.000E+00  0.000E+00  0.000E+00  3.59395E+01  1.617E-01  2.000E+01  2.000E+04 -1.427E-02
   1   15   25     3     4    1.6454E+05 -2.7665E+02   1.6481E+05  0.000E+00  0.000E+00  0.000E+00  3.50508E+01  1.619E-01  2.000E+01  2.000E+04 -1.383E-02
   1   15   26     3     5    1.6481E+05 -3.3252E+02   1.6514E+05  0.000E+00  0.000E+00  0.000E+00  3.41621E+01  1.621E-01  2.000E+01  2.000E+04 -1.663E-02
   1   16   27     3     6    1.6514E+05 -3.6741E+02   1.6551E+05  0.000E+00  0.000E+00  0.000E+00  3.32734E+01  1.623E-01  2.000E+01  2.000E+04 -1.837E-02
   1   17   28     3     7    1.6551E+05 -1.5622E+03   1.6707E+05  0.000E+00  0.000E+00  0.000E+00  3.23851E+01  1.629E-01  2.000E+01  2.000E+04 -7.811E-02
   1   18   29     3     8    1.6707E+05 -2.9247E+03   1.7000E+05  0.000E+00  0.000E+00  0.000E+00  3.14975E+01  1.642E-01  2.000E+01  2.000E+04 -1.462E-01
   1   18   30     3     9    1.7000E+05 -3.1912E+03   1.7319E+05  0.000E+00  0.000E+00  0.000E+00  3.06104E+01  1.660E-01  2.000E+01  2.000E+04 -1.596E-01



1
              HEAD IN LAYER   1 AT END OF TIME STEP   1 IN STRESS PERIOD    8
  ---------------------------------------------------------------------------

          1      2      3      4      5      6      7      8      9     10
         11     12     13     14     15     16     17     18     19     20
         21     22     23     24     25     26     27     28     29     30
 .........................................................................
   1  ****** ****** ****** ****** ****** ****** ****** ****** ****** ******
      ****** ****** ****** ****** ****** ****** ****** ****** ****** ******
      ****** ****** ****** ****** ****** ****** ****** ****** ****** ******
   2  ****** ****** ****** ****** ****** ****** ****** ****** ****** ******
      ****** ****** ****** ****** ****** ****** ****** ****** ****** ******
      ****** ****** ****** ****** ****** ****** ****** ****** ****** ******
   3  ****** ****** ****** ****** ****** ****** ****** ****** ****** ******
      ****** ****** ****** ****** ****** ****** ****** ****** ****** ******
      ****** ****** ****** ****** ****** ****** ****** ****** ****** ******
   4  ****** ****** ****** ****** ****** ****** ****** ****** ****** ******
      ****** ****** ****** ****** ****** ****** ****** ****** ****** ******
      ****** ****** ****** ****** ****** ****** ****** ****** ****** ******
   5  ****** ****** ****** ****** ****** ****** ****** ****** ****** ******
      ****** ****** ****** ****** ****** ****** ****** ****** ****** ******
      ****** ****** ****** ****** ****** ****** ****** ****** ****** ******
   6  ****** ****** ****** ****** ****** ****** ****** ****** ****** ******
      ****** ****** ****** ****** ****** ****** ****** ****** ****** ******
      ****** ****** ****** ****** ****** ****** ****** ****** ****** ******
   7  ****** ****** ****** ****** ****** ****** ****** ****** ****** ******
      ****** ****** ****** ****** ****** ****** ****** ****** ****** ******
      ****** ****** ****** ****** ****** ****** ****** ****** ****** ******
   8  ****** ****** ****** ****** ****** ****** ****** ****** ****** ******
      ****** ****** ****** ****** ****** ****** ****** ****** ****** ******
      ****** ****** ****** ****** ****** ****** ****** ****** ****** ******
   9  ****** ****** ****** ****** ****** ****** ****** ****** ****** ******
      ****** ****** ****** ****** ****** ****** ****** ****** ****** ******
      ****** ****** ****** ****** ****** ****** ****** ****** ****** ******
  10  ****** ****** ****** ****** ****** ****** ****** ****** ****** ******
      ****** ****** ****** ****** ****** ****** ****** ****** ****** ******
      ****** ****** ****** ****** ****** ****** ****** ****** ****** ******
  11  ****** ****** ****** ****** ****** ****** ****** ****** ****** ******
      ****** ****** ****** ****** ****** ****** ****** ****** ****** ******
      ****** ****** ****** ****** ****** ****** ****** ****** ****** ******
  12  ****** ****** ****** ****** ****** ****** ****** ****** ****** ******
      ****** ****** ****** ****** ****** ****** ****** ****** ****** ******
      ****** ****** ****** ****** ****** ****** ****** ****** ****** ******
  13  ****** ****** ****** ****** ****** ****** ****** ****** ****** ******
      ****** ****** ****** ****** ****** ****** ****** ****** ****** ******
      ****** ****** ****** ****** ****** ****** ****** ****** ****** ******
  14  ****** ****** ****** ****** ****** ****** ****** ****** ****** ******
      ****** ****** ****** ****** ****** ****** ****** ****** ****** ******
      ****** ****** ****** ****** ****** ****** ****** ****** ****** ******
  15  ****** ****** ****** ****** ****** ****** ****** ****** ****** ******
      ****** ****** ****** ****** ****** ****** ****** ****** ****** ******
      ****** ****** ****** ****** ****** ****** ****** ****** ****** ******
  16  ****** ****** ****** ****** ****** ****** ****** ****** ****** ******
      ****** ****** ****** ****** ****** ****** ****** ****** ****** ******
      ****** ****** ****** ****** ****** ****** ****** ****** ****** ******
  17  ****** ****** ****** ****** ****** ****** ****** ****** ****** ******
      ****** ****** ****** ****** ****** ****** ****** ****** ****** ******
      ****** ****** ****** ****** ****** ****** ****** ****** ****** ******
  18  ****** ****** ****** ****** ****** ****** ****** ****** ****** ******
      ****** ****** ****** ****** ****** ****** ****** ****** ****** ******
      ****** ****** ****** ****** ****** ****** ****** ****** ****** ******
  19  ****** ****** ****** ****** ****** ****** ****** ****** ****** ******
      ****** ****** ****** ****** ****** ****** ****** ****** ****** ******
      ****** ****** ****** ****** ****** ****** ****** ****** ****** ******
  20  ****** ****** ****** ****** ****** ****** ****** ****** ****** ******
      ****** ****** ****** ****** ****** ****** ****** ****** ****** ******
      ****** ****** ****** ****** ****** ****** ****** ****** ****** ******
  21  ****** ****** ****** ****** ****** ****** ****** ****** ****** ******
      ****** ****** ****** ****** ****** ****** ****** ****** ****** ******
      ****** ****** ****** ****** ****** ****** ****** ****** ****** ******
  22  ****** ****** ****** ****** ****** ****** ****** ****** ****** ******
      ****** ****** ****** ****** ****** ****** ****** ****** ****** ******
      ****** ****** ****** ****** ****** ****** ****** ****** ****** ******
  23  ****** ****** ****** ****** ****** ****** ****** ****** ****** ******
      ****** ****** ****** ****** ****** ****** ****** ****** ****** ******
      ****** ****** ****** ****** ****** ****** ****** ****** ****** ******
  24  ****** ****** ****** ****** ****** ****** ****** ****** ****** ******
      ****** ****** ****** ****** ****** ****** ****** ****** ****** ******
      ****** ****** ****** ****** ****** ****** ****** ****** ****** ******
  25  ****** ****** ****** ****** ****** ****** ****** ****** ****** ******
      ****** ****** ****** ****** ****** ****** ****** ****** ****** ******
      ****** ****** ****** ****** ****** ****** ****** ****** ****** ******

 HEAD WILL BE SAVED ON UNIT   51 AT END OF TIME STEP    1, STRESS PERIOD    8
1
  VOLUMETRIC BUDGET FOR ENTIRE MODEL AT END OF TIME STEP    1, STRESS PERIOD   8
  ------------------------------------------------------------------------------

     CUMULATIVE VOLUMES      L**3       RATES FOR THIS TIME STEP      L**3/T
     ------------------                 ------------------------

           IN:                                      IN:
           ---                                      ---
             STORAGE =    34961557.1969               STORAGE =        2225.8411
       CONSTANT HEAD =    20261061.9450         CONSTANT HEAD =       35055.0376
               WELLS =           0.0000                 WELLS =           0.0000
            RECHARGE =    17608800.0000              RECHARGE =       27600.0000
      STREAM LEAKAGE =     9824320.2325        STREAM LEAKAGE =       17407.3584

            TOTAL IN =    82655739.3744              TOTAL IN =       82288.2372

          OUT:                                     OUT:
          ----                                     ----
             STORAGE =      836085.1749               STORAGE =        1528.6312
       CONSTANT HEAD =           0.0000         CONSTANT HEAD =           0.0000
               WELLS =    29318518.2392                 WELLS =       40162.3538
            RECHARGE =           0.0000              RECHARGE =           0.0000
      STREAM LEAKAGE =    52501137.9213        STREAM LEAKAGE =       40597.2448

           TOTAL OUT =    82655741.3354             TOTAL OUT =       82288.2298

            IN - OUT =          -1.9610              IN - OUT =       7.3469E-03

 PERCENT DISCREPANCY =          -0.00     PERCENT DISCREPANCY =           0.00






         TIME SUMMARY AT END OF TIME STEP    1 IN STRESS PERIOD    8
                    SECONDS     MINUTES      HOURS       DAYS        YEARS
                    -----------------------------------------------------------
   TIME STEP LENGTH 7.86240E+06 1.31040E+05  2184.0      91.000     0.24914    
 STRESS PERIOD TIME 7.86240E+06 1.31040E+05  2184.0      91.000     0.24914    
         TOTAL TIME 6.30720E+07 1.05120E+06  17520.      730.00      1.9986    
1
1
                            STRESS PERIOD NO.    9, LENGTH =   92.00000    
                            -----------------------------------------------

                              NUMBER OF TIME STEPS =     1

                               MULTIPLIER FOR DELT =     1.500

                            INITIAL TIME STEP SIZE =   92.00000    

 WELL NO.  LAYER   ROW   COL   STRESS RATE         
 --------------------------------------------------
      1      1     10     24     -0.1046E+05
      2      1      7      8      -7751.    
      3      1      5     20      -7335.    
      4      1     11     21     -0.1462E+05

      4 WELLS

                 RECHARGE =  5.000000E-04

 REUSING STREAM SEGMENT DATA FROM LAST STRESS PERIOD
 
 SOLVING FOR HEAD 


     6 CALLS TO PCG ROUTINE FOR TIME STEP   1 IN STRESS PERIOD    9
    23 TOTAL ITERATIONS

 OUTPUT CONTROL FOR STRESS PERIOD    9   TIME STEP    1
    SAVE BUDGET
    SAVE HEAD FOR ALL LAYERS
    PRINT HEAD FOR ALL LAYERS
 UBDSV2 SAVING "STREAMFLOW OUT  " ON UNIT  50 AT TIME STEP  1, STRESS PERIOD   9



 STREAM LISTING     PERIOD      9   STEP        1

 LAYER ROW COL. STREAM  RCH.  FLOW INTO     FLOW TO   FLOW OUT OF   OVRLND.     DIRECT     STREAM       STREAM     STREAM     STREAM   STREAMBED  STREAMBED
                SEG.NO.  NO.  STRM. RCH.    AQUIFER    STRM. RCH.    RUNOFF     PRECIP       ET          HEAD       DEPTH      WIDTH   CONDCTNC.   GRADIENT

   1   13    1     1     1    1.0000E+05 -9.5015E+02   1.0095E+05  0.000E+00  0.000E+00  0.000E+00  4.84064E+01  1.451E-01  2.000E+01  2.000E+04 -4.751E-02
   1   13    2     1     2    1.0095E+05 -1.8171E+03   1.0277E+05  0.000E+00  0.000E+00  0.000E+00  4.79304E+01  1.463E-01  2.000E+01  2.000E+04 -9.085E-02
   1   14    3     1     3    1.0277E+05 -3.3362E+02   1.0310E+05  0.000E+00  0.000E+00  0.000E+00  4.74540E+01  1.472E-01  2.000E+01  2.000E+04 -1.668E-02
   1   15    4     1     4    1.0310E+05 -3.2841E+02   1.0343E+05  0.000E+00  0.000E+00  0.000E+00  4.69770E+01  1.475E-01  2.000E+01  2.000E+04 -1.642E-02
   1   16    5     1     5    1.0343E+05 -1.4528E+03   1.0488E+05  0.000E+00  0.000E+00  0.000E+00  4.65005E+01  1.482E-01  2.000E+01  2.000E+04 -7.264E-02
   1   16    6     1     6    1.0488E+05 -9.0882E+02   1.0579E+05  0.000E+00  0.000E+00  0.000E+00  4.60242E+01  1.492E-01  2.000E+01  2.000E+04 -4.544E-02
   1   16    7     1     7    1.0579E+05 -8.9367E+02   1.0668E+05  0.000E+00  0.000E+00  0.000E+00  4.55477E+01  1.500E-01  2.000E+01  2.000E+04 -4.468E-02
   1   16    8     1     8    1.0668E+05 -8.9569E+02   1.0758E+05  0.000E+00  0.000E+00  0.000E+00  4.50712E+01  1.508E-01  2.000E+01  2.000E+04 -4.478E-02
   1   16    9     1     9    1.0758E+05 -8.9866E+02   1.0848E+05  0.000E+00  0.000E+00  0.000E+00  4.45947E+01  1.515E-01  2.000E+01  2.000E+04 -4.493E-02
   1   16   10     1    10    1.0848E+05 -9.0298E+02   1.0938E+05  0.000E+00  0.000E+00  0.000E+00  4.41182E+01  1.523E-01  2.000E+01  2.000E+04 -4.515E-02
   1   16   11     1    11    1.0938E+05 -9.2614E+02   1.1031E+05  0.000E+00  0.000E+00  0.000E+00  4.36417E+01  1.530E-01  2.000E+01  2.000E+04 -4.631E-02
   1   16   12     1    12    1.1031E+05 -1.5286E+03   1.1184E+05  0.000E+00  0.000E+00  0.000E+00  4.31654E+01  1.541E-01  2.000E+01  2.000E+04 -7.643E-02
   1   15   13     1    13    1.1184E+05 -1.1867E+03   1.1302E+05  0.000E+00  0.000E+00  0.000E+00  4.26893E+01  1.552E-01  2.000E+01  2.000E+04 -5.933E-02
   1   14   14     1    14    1.1302E+05 -1.2106E+03   1.1423E+05  0.000E+00  0.000E+00  0.000E+00  4.22130E+01  1.562E-01  2.000E+01  2.000E+04 -6.053E-02
   1   13   15     1    15    1.1423E+05 -1.2149E+03   1.1545E+05  0.000E+00  0.000E+00  0.000E+00  4.17367E+01  1.572E-01  2.000E+01  2.000E+04 -6.074E-02
   1   12   16     1    16    1.1545E+05 -1.1363E+03   1.1659E+05  0.000E+00  0.000E+00  0.000E+00  4.12604E+01  1.581E-01  2.000E+01  2.000E+04 -5.682E-02
   1   12   17     1    17    1.1659E+05 -6.0551E+02   1.1719E+05  0.000E+00  0.000E+00  0.000E+00  4.07838E+01  1.588E-01  2.000E+01  2.000E+04 -3.028E-02
   1   12   18     1    18    1.1719E+05 -1.9909E+02   1.1739E+05  0.000E+00  0.000E+00  0.000E+00  4.03069E+01  1.592E-01  2.000E+01  2.000E+04 -9.955E-03
   1   12   19     1    19    1.1739E+05  1.7243E+03   1.1567E+05  0.000E+00  0.000E+00  0.000E+00  3.98290E+01  1.586E-01  2.000E+01  2.000E+04  8.622E-02
   1   13   20     1    20    1.1567E+05  1.3763E+03   1.1429E+05  0.000E+00  0.000E+00  0.000E+00  3.93505E+01  1.573E-01  2.000E+01  2.000E+04  6.882E-02
   1   14   21     1    21    1.1429E+05 -3.1502E+02   1.1460E+05  0.000E+00  0.000E+00  0.000E+00  3.88728E+01  1.569E-01  2.000E+01  2.000E+04 -1.575E-02
   1   14   22     1    22    1.1460E+05  5.4160E+03   1.0919E+05  0.000E+00  0.000E+00  0.000E+00  3.83934E+01  1.547E-01  2.000E+01  2.000E+04  2.708E-01
   1    9   30     2     1    5.0000E+04 -1.3491E+02   5.0135E+04  0.000E+00  0.000E+00  0.000E+00  4.02410E+01  1.160E-01  2.000E+01  2.000E+04 -6.745E-03
   1    9   29     2     2    5.0135E+04 -3.7291E+02   5.0508E+04  0.000E+00  0.000E+00  0.000E+00  3.99913E+01  1.163E-01  2.000E+01  2.000E+04 -1.865E-02
   1    9   28     2     3    5.0508E+04 -4.5608E+02   5.0964E+04  0.000E+00  0.000E+00  0.000E+00  3.97419E+01  1.169E-01  2.000E+01  2.000E+04 -2.280E-02
   1    9   27     2     4    5.0964E+04 -4.4133E+02   5.1405E+04  0.000E+00  0.000E+00  0.000E+00  3.94925E+01  1.175E-01  2.000E+01  2.000E+04 -2.207E-02
   1   10   26     2     5    5.1405E+04  1.5132E+03   4.9892E+04  0.000E+00  0.000E+00  0.000E+00  3.92418E+01  1.168E-01  2.000E+01  2.000E+04  7.566E-02
   1   11   25     2     6    4.9892E+04  2.9892E+03   4.6903E+04  0.000E+00  0.000E+00  0.000E+00  3.89886E+01  1.136E-01  2.000E+01  2.000E+04  1.495E-01
   1   12   24     2     7    4.6903E+04  2.8645E+03   4.4038E+04  0.000E+00  0.000E+00  0.000E+00  3.87344E+01  1.094E-01  2.000E+01  2.000E+04  1.432E-01
   1   13   23     2     8    4.4038E+04  3.9901E+02   4.3639E+04  0.000E+00  0.000E+00  0.000E+00  3.84821E+01  1.071E-01  2.000E+01  2.000E+04  1.995E-02
   1   14   22     2     9    4.3639E+04  2.1523E+03   4.1487E+04  0.000E+00  0.000E+00  0.000E+00  3.82302E+01  1.052E-01  2.000E+01  2.000E+04  1.076E-01
   1   14   22     3     1    1.5068E+05 -8.2204E+03   1.5890E+05  0.000E+00  0.000E+00  0.000E+00  3.77116E+01  1.560E-01  2.000E+01  2.000E+04 -4.110E-01
   1   15   23     3     2    1.5890E+05 -4.9929E+02   1.5939E+05  0.000E+00  0.000E+00  0.000E+00  3.68253E+01  1.586E-01  2.000E+01  2.000E+04 -2.496E-02
   1   15   24     3     3    1.5939E+05 -2.4258E+02   1.5964E+05  0.000E+00  0.000E+00  0.000E+00  3.59366E+01  1.588E-01  2.000E+01  2.000E+04 -1.213E-02
   1   15   25     3     4    1.5964E+05 -2.3363E+02   1.5987E+05  0.000E+00  0.000E+00  0.000E+00  3.50479E+01  1.590E-01  2.000E+01  2.000E+04 -1.168E-02
   1   15   26     3     5    1.5987E+05 -2.8510E+02   1.6016E+05  0.000E+00  0.000E+00  0.000E+00  3.41591E+01  1.591E-01  2.000E+01  2.000E+04 -1.425E-02
   1   16   27     3     6    1.6016E+05 -3.1171E+02   1.6047E+05  0.000E+00  0.000E+00  0.000E+00  3.32704E+01  1.593E-01  2.000E+01  2.000E+04 -1.559E-02
   1   17   28     3     7    1.6047E+05 -1.4097E+03   1.6188E+05  0.000E+00  0.000E+00  0.000E+00  3.23821E+01  1.598E-01  2.000E+01  2.000E+04 -7.048E-02
   1   18   29     3     8    1.6188E+05 -2.7509E+03   1.6463E+05  0.000E+00  0.000E+00  0.000E+00  3.14944E+01  1.611E-01  2.000E+01  2.000E+04 -1.375E-01
   1   18   30     3     9    1.6463E+05 -3.0603E+03   1.6769E+05  0.000E+00  0.000E+00  0.000E+00  3.06072E+01  1.628E-01  2.000E+01  2.000E+04 -1.530E-01



1
              HEAD IN LAYER   1 AT END OF TIME STEP   1 IN STRESS PERIOD    9
  ---------------------------------------------------------------------------

          1      2      3      4      5      6      7      8      9     10
         11     12     13     14     15     16     17     18     19     20
         21     22     23     24     25     26     27     28     29     30
 .........................................................................
   1  ****** ****** ****** ****** ****** ****** ****** ****** ****** ******
      ****** ****** ****** ****** ****** ****** ****** ****** ****** ******
      ****** ****** ****** ****** ****** ****** ****** ****** ****** ******
   2  ****** ****** ****** ****** ****** ****** ****** ****** ****** ******
      ****** ****** ****** ****** ****** ****** ****** ****** ****** ******
      ****** ****** ****** ****** ****** ****** ****** ****** ****** ******
   3  ****** ****** ****** ****** ****** ****** ****** ****** ****** ******
      ****** ****** ****** ****** ****** ****** ****** ****** ****** ******
      ****** ****** ****** ****** ****** ****** ****** ****** ****** ******
   4  ****** ****** ****** ****** ****** ****** ****** ****** ****** ******
      ****** ****** ****** ****** ****** ****** ****** ****** ****** ******
      ****** ****** ****** ****** ****** ****** ****** ****** ****** ******
   5  ****** ****** ****** ****** ****** ****** ****** ****** ****** ******
      ****** ****** ****** ****** ****** ****** ****** ****** ****** ******
      ****** ****** ****** ****** ****** ****** ****** ****** ****** ******
   6  ****** ****** ****** ****** ****** ****** ****** ****** ****** ******
      ****** ****** ****** ****** ****** ****** ****** ****** ****** ******
      ****** ****** ****** ****** ****** ****** ****** ****** ****** ******
   7  ****** ****** ****** ****** ****** ****** ****** ****** ****** ******
      ****** ****** ****** ****** ****** ****** ****** ****** ****** ******
      ****** ****** ****** ****** ****** ****** ****** ****** ****** ******
   8  ****** ****** ****** ****** ****** ****** ****** ****** ****** ******
      ****** ****** ****** ****** ****** ****** ****** ****** ****** ******
      ****** ****** ****** ****** ****** ****** ****** ****** ****** ******
   9  ****** ****** ****** ****** ****** ****** ****** ****** ****** ******
      ****** ****** ****** ****** ****** ****** ****** ****** ****** ******
      ****** ****** ****** ****** ****** ****** ****** ****** ****** ******
  10  ****** ****** ****** ****** ****** ****** ****** ****** ****** ******
      ****** ****** ****** ****** ****** ****** ****** ****** ****** ******
      ****** ****** ****** ****** ****** ****** ****** ****** ****** ******
  11  ****** ****** ****** ****** ****** ****** ****** ****** ****** ******
      ****** ****** ****** ****** ****** ****** ****** ****** ****** ******
      ****** ****** ****** ****** ****** ****** ****** ****** ****** ******
  12  ****** ****** ****** ****** ****** ****** ****** ****** ****** ******
      ****** ****** ****** ****** ****** ****** ****** ****** ****** ******
      ****** ****** ****** ****** ****** ****** ****** ****** ****** ******
  13  ****** ****** ****** ****** ****** ****** ****** ****** ****** ******
      ****** ****** ****** ****** ****** ****** ****** ****** ****** ******
      ****** ****** ****** ****** ****** ****** ****** ****** ****** ******
  14  ****** ****** ****** ****** ****** ****** ****** ****** ****** ******
      ****** ****** ****** ****** ****** ****** ****** ****** ****** ******
      ****** ****** ****** ****** ****** ****** ****** ****** ****** ******
  15  ****** ****** ****** ****** ****** ****** ****** ****** ****** ******
      ****** ****** ****** ****** ****** ****** ****** ****** ****** ******
      ****** ****** ****** ****** ****** ****** ****** ****** ****** ******
  16  ****** ****** ****** ****** ****** ****** ****** ****** ****** ******
      ****** ****** ****** ****** ****** ****** ****** ****** ****** ******
      ****** ****** ****** ****** ****** ****** ****** ****** ****** ******
  17  ****** ****** ****** ****** ****** ****** ****** ****** ****** ******
      ****** ****** ****** ****** ****** ****** ****** ****** ****** ******
      ****** ****** ****** ****** ****** ****** ****** ****** ****** ******
  18  ****** ****** ****** ****** ****** ****** ****** ****** ****** ******
      ****** ****** ****** ****** ****** ****** ****** ****** ****** ******
      ****** ****** ****** ****** ****** ****** ****** ****** ****** ******
  19  ****** ****** ****** ****** ****** ****** ****** ****** ****** ******
      ****** ****** ****** ****** ****** ****** ****** ****** ****** ******
      ****** ****** ****** ****** ****** ****** ****** ****** ****** ******
  20  ****** ****** ****** ****** ****** ****** ****** ****** ****** ******
      ****** ****** ****** ****** ****** ****** ****** ****** ****** ******
      ****** ****** ****** ****** ****** ****** ****** ****** ****** ******
  21  ****** ****** ****** ****** ****** ****** ****** ****** ****** ******
      ****** ****** ****** ****** ****** ****** ****** ****** ****** ******
      ****** ****** ****** ****** ****** ****** ****** ****** ****** ******
  22  ****** ****** ****** ****** ****** ****** ****** ****** ****** ******
      ****** ****** ****** ****** ****** ****** ****** ****** ****** ******
      ****** ****** ****** ****** ****** ****** ****** ****** ****** ******
  23  ****** ****** ****** ****** ****** ****** ****** ****** ****** ******
      ****** ****** ****** ****** ****** ****** ****** ****** ****** ******
      ****** ****** ****** ****** ****** ****** ****** ****** ****** ******
  24  ****** ****** ****** ****** ****** ****** ****** ****** ****** ******
      ****** ****** ****** ****** ****** ****** ****** ****** ****** ******
      ****** ****** ****** ****** ****** ****** ****** ****** ****** ******
  25  ****** ****** ****** ****** ****** ****** ****** ****** ****** ******
      ****** ****** ****** ****** ****** ****** ****** ****** ****** ******
      ****** ****** ****** ****** ****** ****** ****** ****** ****** ******

 HEAD WILL BE SAVED ON UNIT   51 AT END OF TIME STEP    1, STRESS PERIOD    9
1
  VOLUMETRIC BUDGET FOR ENTIRE MODEL AT END OF TIME STEP    1, STRESS PERIOD   9
  ------------------------------------------------------------------------------

     CUMULATIVE VOLUMES      L**3       RATES FOR THIS TIME STEP      L**3/T
     ------------------                 ------------------------

           IN:                                      IN:
           ---                                      ---
             STORAGE =    35676166.9765               STORAGE =        7767.4976
       CONSTANT HEAD =    23599159.7936         CONSTANT HEAD =       36283.6723
               WELLS =           0.0000                 WELLS =           0.0000
            RECHARGE =    18878400.0000              RECHARGE =       13800.0000
      STREAM LEAKAGE =    11520322.2437        STREAM LEAKAGE =       18434.8045

            TOTAL IN =    89674049.0137              TOTAL IN =       76285.9743

          OUT:                                     OUT:
          ----                                     ----
             STORAGE =      836085.1749               STORAGE =           0.0000
       CONSTANT HEAD =           0.0000         CONSTANT HEAD =           0.0000
               WELLS =    33013454.7844                 WELLS =       40162.3538
            RECHARGE =           0.0000              RECHARGE =           0.0000
      STREAM LEAKAGE =    55824511.0927        STREAM LEAKAGE =       36123.6214

           TOTAL OUT =    89674051.0519             TOTAL OUT =       76285.9752

            IN - OUT =          -2.0382              IN - OUT =      -8.3942E-04

 PERCENT DISCREPANCY =          -0.00     PERCENT DISCREPANCY =          -0.00






         TIME SUMMARY AT END OF TIME STEP    1 IN STRESS PERIOD    9
                    SECONDS     MINUTES      HOURS       DAYS        YEARS
                    -----------------------------------------------------------
   TIME STEP LENGTH 7.94880E+06 1.32480E+05  2208.0      92.000     0.25188    
 STRESS PERIOD TIME 7.94880E+06 1.32480E+05  2208.0      92.000     0.25188    
         TOTAL TIME 7.10208E+07 1.18368E+06  19728.      822.00      2.2505    
1
1
                            STRESS PERIOD NO.   10, LENGTH =   91.00000    
                            -----------------------------------------------

                              NUMBER OF TIME STEPS =     1

                               MULTIPLIER FOR DELT =     1.500

                            INITIAL TIME STEP SIZE =   91.00000    

 WELL NO.  LAYER   ROW   COL   STRESS RATE         
 --------------------------------------------------
      1      1     10     24     -0.1046E+05
      2      1      7      8      -7751.    
      3      1      5     20      -7335.    
      4      1     11     21     -0.1462E+05

      4 WELLS

                 RECHARGE =  2.000000E-03

 REUSING STREAM SEGMENT DATA FROM LAST STRESS PERIOD
 
 SOLVING FOR HEAD 


     7 CALLS TO PCG ROUTINE FOR TIME STEP   1 IN STRESS PERIOD   10
    26 TOTAL ITERATIONS

 OUTPUT CONTROL FOR STRESS PERIOD   10   TIME STEP    1
    SAVE BUDGET
    SAVE HEAD FOR ALL LAYERS
    PRINT HEAD FOR ALL LAYERS
 UBDSV2 SAVING "STREAMFLOW OUT  " ON UNIT  50 AT TIME STEP  1, STRESS PERIOD  10



 STREAM LISTING     PERIOD     10   STEP        1

 LAYER ROW COL. STREAM  RCH.  FLOW INTO     FLOW TO   FLOW OUT OF   OVRLND.     DIRECT     STREAM       STREAM     STREAM     STREAM   STREAMBED  STREAMBED
                SEG.NO.  NO.  STRM. RCH.    AQUIFER    STRM. RCH.    RUNOFF     PRECIP       ET          HEAD       DEPTH      WIDTH   CONDCTNC.   GRADIENT

   1   13    1     1     1    1.0000E+05 -1.3886E+03   1.0139E+05  0.000E+00  0.000E+00  0.000E+00  4.84066E+01  1.453E-01  2.000E+01  2.000E+04 -6.943E-02
   1   13    2     1     2    1.0139E+05 -2.3019E+03   1.0369E+05  0.000E+00  0.000E+00  0.000E+00  4.79309E+01  1.468E-01  2.000E+01  2.000E+04 -1.151E-01
   1   14    3     1     3    1.0369E+05 -5.1763E+02   1.0421E+05  0.000E+00  0.000E+00  0.000E+00  4.74549E+01  1.481E-01  2.000E+01  2.000E+04 -2.588E-02
   1   15    4     1     4    1.0421E+05 -5.2586E+02   1.0473E+05  0.000E+00  0.000E+00  0.000E+00  4.69780E+01  1.485E-01  2.000E+01  2.000E+04 -2.629E-02
   1   16    5     1     5    1.0473E+05 -2.0709E+03   1.0680E+05  0.000E+00  0.000E+00  0.000E+00  4.65019E+01  1.496E-01  2.000E+01  2.000E+04 -1.035E-01
   1   16    6     1     6    1.0680E+05 -1.2695E+03   1.0807E+05  0.000E+00  0.000E+00  0.000E+00  4.60260E+01  1.510E-01  2.000E+01  2.000E+04 -6.347E-02
   1   16    7     1     7    1.0807E+05 -1.2364E+03   1.0931E+05  0.000E+00  0.000E+00  0.000E+00  4.55498E+01  1.521E-01  2.000E+01  2.000E+04 -6.182E-02
   1   16    8     1     8    1.0931E+05 -1.2330E+03   1.1054E+05  0.000E+00  0.000E+00  0.000E+00  4.50736E+01  1.531E-01  2.000E+01  2.000E+04 -6.165E-02
   1   16    9     1     9    1.1054E+05 -1.2347E+03   1.1178E+05  0.000E+00  0.000E+00  0.000E+00  4.45973E+01  1.541E-01  2.000E+01  2.000E+04 -6.173E-02
   1   16   10     1    10    1.1178E+05 -1.2396E+03   1.1302E+05  0.000E+00  0.000E+00  0.000E+00  4.41211E+01  1.552E-01  2.000E+01  2.000E+04 -6.198E-02
   1   16   11     1    11    1.1302E+05 -1.2668E+03   1.1428E+05  0.000E+00  0.000E+00  0.000E+00  4.36448E+01  1.562E-01  2.000E+01  2.000E+04 -6.334E-02
   1   16   12     1    12    1.1428E+05 -2.0968E+03   1.1638E+05  0.000E+00  0.000E+00  0.000E+00  4.31689E+01  1.576E-01  2.000E+01  2.000E+04 -1.048E-01
   1   15   13     1    13    1.1638E+05 -1.7686E+03   1.1815E+05  0.000E+00  0.000E+00  0.000E+00  4.26932E+01  1.592E-01  2.000E+01  2.000E+04 -8.843E-02
   1   14   14     1    14    1.1815E+05 -1.7975E+03   1.1995E+05  0.000E+00  0.000E+00  0.000E+00  4.22174E+01  1.606E-01  2.000E+01  2.000E+04 -8.988E-02
   1   13   15     1    15    1.1995E+05 -1.7899E+03   1.2174E+05  0.000E+00  0.000E+00  0.000E+00  4.17416E+01  1.621E-01  2.000E+01  2.000E+04 -8.950E-02
   1   12   16     1    16    1.2174E+05 -1.6867E+03   1.2342E+05  0.000E+00  0.000E+00  0.000E+00  4.12657E+01  1.634E-01  2.000E+01  2.000E+04 -8.433E-02
   1   12   17     1    17    1.2342E+05 -1.0254E+03   1.2445E+05  0.000E+00  0.000E+00  0.000E+00  4.07895E+01  1.645E-01  2.000E+01  2.000E+04 -5.127E-02
   1   12   18     1    18    1.2445E+05 -6.1592E+02   1.2507E+05  0.000E+00  0.000E+00  0.000E+00  4.03129E+01  1.652E-01  2.000E+01  2.000E+04 -3.080E-02
   1   12   19     1    19    1.2507E+05  1.2112E+03   1.2385E+05  0.000E+00  0.000E+00  0.000E+00  3.98354E+01  1.649E-01  2.000E+01  2.000E+04  6.056E-02
   1   13   20     1    20    1.2385E+05  8.5691E+02   1.2300E+05  0.000E+00  0.000E+00  0.000E+00  3.93573E+01  1.641E-01  2.000E+01  2.000E+04  4.285E-02
   1   14   21     1    21    1.2300E+05 -8.4026E+02   1.2384E+05  0.000E+00  0.000E+00  0.000E+00  3.88800E+01  1.641E-01  2.000E+01  2.000E+04 -4.201E-02
   1   14   22     1    22    1.2384E+05  5.2856E+03   1.1855E+05  0.000E+00  0.000E+00  0.000E+00  3.84010E+01  1.623E-01  2.000E+01  2.000E+04  2.643E-01
   1    9   30     2     1    5.0000E+04 -5.4790E+02   5.0548E+04  0.000E+00  0.000E+00  0.000E+00  4.02412E+01  1.162E-01  2.000E+01  2.000E+04 -2.739E-02
   1    9   29     2     2    5.0548E+04 -7.8352E+02   5.1331E+04  0.000E+00  0.000E+00  0.000E+00  3.99922E+01  1.172E-01  2.000E+01  2.000E+04 -3.918E-02
   1    9   28     2     3    5.1331E+04 -8.6559E+02   5.2197E+04  0.000E+00  0.000E+00  0.000E+00  3.97433E+01  1.183E-01  2.000E+01  2.000E+04 -4.328E-02
   1    9   27     2     4    5.2197E+04 -9.9081E+02   5.3188E+04  0.000E+00  0.000E+00  0.000E+00  3.94946E+01  1.196E-01  2.000E+01  2.000E+04 -4.954E-02
   1   10   26     2     5    5.3188E+04  9.6316E+02   5.2225E+04  0.000E+00  0.000E+00  0.000E+00  3.92446E+01  1.196E-01  2.000E+01  2.000E+04  4.816E-02
   1   11   25     2     6    5.2225E+04  2.4636E+03   4.9761E+04  0.000E+00  0.000E+00  0.000E+00  3.89922E+01  1.172E-01  2.000E+01  2.000E+04  1.232E-01
   1   12   24     2     7    4.9761E+04  2.3892E+03   4.7372E+04  0.000E+00  0.000E+00  0.000E+00  3.87389E+01  1.139E-01  2.000E+01  2.000E+04  1.195E-01
   1   13   23     2     8    4.7372E+04  2.5082E+02   4.7121E+04  0.000E+00  0.000E+00  0.000E+00  3.84870E+01  1.120E-01  2.000E+01  2.000E+04  1.254E-02
   1   14   22     2     9    4.7121E+04  1.9743E+03   4.5147E+04  0.000E+00  0.000E+00  0.000E+00  3.82354E+01  1.104E-01  2.000E+01  2.000E+04  9.871E-02
   1   14   22     3     1    1.6370E+05 -8.3469E+03   1.7205E+05  0.000E+00  0.000E+00  0.000E+00  3.77193E+01  1.638E-01  2.000E+01  2.000E+04 -4.173E-01
   1   15   23     3     2    1.7205E+05 -6.6205E+02   1.7271E+05  0.000E+00  0.000E+00  0.000E+00  3.68331E+01  1.664E-01  2.000E+01  2.000E+04 -3.310E-02
   1   15   24     3     3    1.7271E+05 -3.7988E+02   1.7309E+05  0.000E+00  0.000E+00  0.000E+00  3.59445E+01  1.667E-01  2.000E+01  2.000E+04 -1.899E-02
   1   15   25     3     4    1.7309E+05 -3.7433E+02   1.7346E+05  0.000E+00  0.000E+00  0.000E+00  3.50558E+01  1.669E-01  2.000E+01  2.000E+04 -1.872E-02
   1   15   26     3     5    1.7346E+05 -4.4740E+02   1.7391E+05  0.000E+00  0.000E+00  0.000E+00  3.41672E+01  1.672E-01  2.000E+01  2.000E+04 -2.237E-02
   1   16   27     3     6    1.7391E+05 -4.9771E+02   1.7441E+05  0.000E+00  0.000E+00  0.000E+00  3.32786E+01  1.674E-01  2.000E+01  2.000E+04 -2.489E-02
   1   17   28     3     7    1.7441E+05 -1.9308E+03   1.7634E+05  0.000E+00  0.000E+00  0.000E+00  3.23904E+01  1.681E-01  2.000E+01  2.000E+04 -9.654E-02
   1   18   29     3     8    1.7634E+05 -3.3035E+03   1.7964E+05  0.000E+00  0.000E+00  0.000E+00  3.15030E+01  1.696E-01  2.000E+01  2.000E+04 -1.652E-01
   1   18   30     3     9    1.7964E+05 -3.4863E+03   1.8313E+05  0.000E+00  0.000E+00  0.000E+00  3.06160E+01  1.716E-01  2.000E+01  2.000E+04 -1.743E-01



1
              HEAD IN LAYER   1 AT END OF TIME STEP   1 IN STRESS PERIOD   10
  ---------------------------------------------------------------------------

          1      2      3      4      5      6      7      8      9     10
         11     12     13     14     15     16     17     18     19     20
         21     22     23     24     25     26     27     28     29     30
 .........................................................................
   1  ****** ****** ****** ****** ****** ****** ****** ****** ****** ******
      ****** ****** ****** ****** ****** ****** ****** ****** ****** ******
      ****** ****** ****** ****** ****** ****** ****** ****** ****** ******
   2  ****** ****** ****** ****** ****** ****** ****** ****** ****** ******
      ****** ****** ****** ****** ****** ****** ****** ****** ****** ******
      ****** ****** ****** ****** ****** ****** ****** ****** ****** ******
   3  ****** ****** ****** ****** ****** ****** ****** ****** ****** ******
      ****** ****** ****** ****** ****** ****** ****** ****** ****** ******
      ****** ****** ****** ****** ****** ****** ****** ****** ****** ******
   4  ****** ****** ****** ****** ****** ****** ****** ****** ****** ******
      ****** ****** ****** ****** ****** ****** ****** ****** ****** ******
      ****** ****** ****** ****** ****** ****** ****** ****** ****** ******
   5  ****** ****** ****** ****** ****** ****** ****** ****** ****** ******
      ****** ****** ****** ****** ****** ****** ****** ****** ****** ******
      ****** ****** ****** ****** ****** ****** ****** ****** ****** ******
   6  ****** ****** ****** ****** ****** ****** ****** ****** ****** ******
      ****** ****** ****** ****** ****** ****** ****** ****** ****** ******
      ****** ****** ****** ****** ****** ****** ****** ****** ****** ******
   7  ****** ****** ****** ****** ****** ****** ****** ****** ****** ******
      ****** ****** ****** ****** ****** ****** ****** ****** ****** ******
      ****** ****** ****** ****** ****** ****** ****** ****** ****** ******
   8  ****** ****** ****** ****** ****** ****** ****** ****** ****** ******
      ****** ****** ****** ****** ****** ****** ****** ****** ****** ******
      ****** ****** ****** ****** ****** ****** ****** ****** ****** ******
   9  ****** ****** ****** ****** ****** ****** ****** ****** ****** ******
      ****** ****** ****** ****** ****** ****** ****** ****** ****** ******
      ****** ****** ****** ****** ****** ****** ****** ****** ****** ******
  10  ****** ****** ****** ****** ****** ****** ****** ****** ****** ******
      ****** ****** ****** ****** ****** ****** ****** ****** ****** ******
      ****** ****** ****** ****** ****** ****** ****** ****** ****** ******
  11  ****** ****** ****** ****** ****** ****** ****** ****** ****** ******
      ****** ****** ****** ****** ****** ****** ****** ****** ****** ******
      ****** ****** ****** ****** ****** ****** ****** ****** ****** ******
  12  ****** ****** ****** ****** ****** ****** ****** ****** ****** ******
      ****** ****** ****** ****** ****** ****** ****** ****** ****** ******
      ****** ****** ****** ****** ****** ****** ****** ****** ****** ******
  13  ****** ****** ****** ****** ****** ****** ****** ****** ****** ******
      ****** ****** ****** ****** ****** ****** ****** ****** ****** ******
      ****** ****** ****** ****** ****** ****** ****** ****** ****** ******
  14  ****** ****** ****** ****** ****** ****** ****** ****** ****** ******
      ****** ****** ****** ****** ****** ****** ****** ****** ****** ******
      ****** ****** ****** ****** ****** ****** ****** ****** ****** ******
  15  ****** ****** ****** ****** ****** ****** ****** ****** ****** ******
      ****** ****** ****** ****** ****** ****** ****** ****** ****** ******
      ****** ****** ****** ****** ****** ****** ****** ****** ****** ******
  16  ****** ****** ****** ****** ****** ****** ****** ****** ****** ******
      ****** ****** ****** ****** ****** ****** ****** ****** ****** ******
      ****** ****** ****** ****** ****** ****** ****** ****** ****** ******
  17  ****** ****** ****** ****** ****** ****** ****** ****** ****** ******
      ****** ****** ****** ****** ****** ****** ****** ****** ****** ******
      ****** ****** ****** ****** ****** ****** ****** ****** ****** ******
  18  ****** ****** ****** ****** ****** ****** ****** ****** ****** ******
      ****** ****** ****** ****** ****** ****** ****** ****** ****** ******
      ****** ****** ****** ****** ****** ****** ****** ****** ****** ******
  19  ****** ****** ****** ****** ****** ****** ****** ****** ****** ******
      ****** ****** ****** ****** ****** ****** ****** ****** ****** ******
      ****** ****** ****** ****** ****** ****** ****** ****** ****** ******
  20  ****** ****** ****** ****** ****** ****** ****** ****** ****** ******
      ****** ****** ****** ****** ****** ****** ****** ****** ****** ******
      ****** ****** ****** ****** ****** ****** ****** ****** ****** ******
  21  ****** ****** ****** ****** ****** ****** ****** ****** ****** ******
      ****** ****** ****** ****** ****** ****** ****** ****** ****** ******
      ****** ****** ****** ****** ****** ****** ****** ****** ****** ******
  22  ****** ****** ****** ****** ****** ****** ****** ****** ****** ******
      ****** ****** ****** ****** ****** ****** ****** ****** ****** ******
      ****** ****** ****** ****** ****** ****** ****** ****** ****** ******
  23  ****** ****** ****** ****** ****** ****** ****** ****** ****** ******
      ****** ****** ****** ****** ****** ****** ****** ****** ****** ******
      ****** ****** ****** ****** ****** ****** ****** ****** ****** ******
  24  ****** ****** ****** ****** ****** ****** ****** ****** ****** ******
      ****** ****** ****** ****** ****** ****** ****** ****** ****** ******
      ****** ****** ****** ****** ****** ****** ****** ****** ****** ******
  25  ****** ****** ****** ****** ****** ****** ****** ****** ****** ******
      ****** ****** ****** ****** ****** ****** ****** ****** ****** ******
      ****** ****** ****** ****** ****** ****** ****** ****** ****** ******

 HEAD WILL BE SAVED ON UNIT   51 AT END OF TIME STEP    1, STRESS PERIOD   10
1
  VOLUMETRIC BUDGET FOR ENTIRE MODEL AT END OF TIME STEP    1, STRESS PERIOD  10
  ------------------------------------------------------------------------------

     CUMULATIVE VOLUMES      L**3       RATES FOR THIS TIME STEP      L**3/T
     ------------------                 ------------------------

           IN:                                      IN:
           ---                                      ---
             STORAGE =    35676166.9765               STORAGE =           0.0000
       CONSTANT HEAD =    26636251.2619         CONSTANT HEAD =       33374.6315
               WELLS =           0.0000                 WELLS =           0.0000
            RECHARGE =    23901600.0000              RECHARGE =       55200.0000
      STREAM LEAKAGE =    12921246.9916        STREAM LEAKAGE =       15394.7775

            TOTAL IN =    99135265.2300              TOTAL IN =      103969.4090

          OUT:                                     OUT:
          ----                                     ----
             STORAGE =     2226966.5238               STORAGE =       15284.4104
       CONSTANT HEAD =           0.0000         CONSTANT HEAD =           0.0000
               WELLS =    36668228.9759                 WELLS =       40162.3538
            RECHARGE =           0.0000              RECHARGE =           0.0000
      STREAM LEAKAGE =    60240071.4198        STREAM LEAKAGE =       48522.6410

           TOTAL OUT =    99135266.9195             TOTAL OUT =      103969.4051

            IN - OUT =          -1.6895              IN - OUT =       3.8324E-03

 PERCENT DISCREPANCY =          -0.00     PERCENT DISCREPANCY =           0.00






         TIME SUMMARY AT END OF TIME STEP    1 IN STRESS PERIOD   10
                    SECONDS     MINUTES      HOURS       DAYS        YEARS
                    -----------------------------------------------------------
   TIME STEP LENGTH 7.86240E+06 1.31040E+05  2184.0      91.000     0.24914    
 STRESS PERIOD TIME 7.86240E+06 1.31040E+05  2184.0      91.000     0.24914    
         TOTAL TIME 7.88832E+07 1.31472E+06  21912.      913.00      2.4997    
1
1
                            STRESS PERIOD NO.   11, LENGTH =   91.00000    
                            -----------------------------------------------

                              NUMBER OF TIME STEPS =     1

                               MULTIPLIER FOR DELT =     1.500

                            INITIAL TIME STEP SIZE =   91.00000    

 WELL NO.  LAYER   ROW   COL   STRESS RATE         
 --------------------------------------------------
      1      1     10     24     -0.1046E+05
      2      1      7      8      -7751.    
      3      1      5     20      -7335.    
      4      1     11     21     -0.1462E+05

      4 WELLS

                 RECHARGE =   0.00000    

 REUSING STREAM SEGMENT DATA FROM LAST STRESS PERIOD
 
 SOLVING FOR HEAD 


     7 CALLS TO PCG ROUTINE FOR TIME STEP   1 IN STRESS PERIOD   11
    26 TOTAL ITERATIONS

 OUTPUT CONTROL FOR STRESS PERIOD   11   TIME STEP    1
    SAVE BUDGET
    SAVE HEAD FOR ALL LAYERS
    PRINT HEAD FOR ALL LAYERS
 UBDSV2 SAVING "STREAMFLOW OUT  " ON UNIT  50 AT TIME STEP  1, STRESS PERIOD  11



 STREAM LISTING     PERIOD     11   STEP        1

 LAYER ROW COL. STREAM  RCH.  FLOW INTO     FLOW TO   FLOW OUT OF   OVRLND.     DIRECT     STREAM       STREAM     STREAM     STREAM   STREAMBED  STREAMBED
                SEG.NO.  NO.  STRM. RCH.    AQUIFER    STRM. RCH.    RUNOFF     PRECIP       ET          HEAD       DEPTH      WIDTH   CONDCTNC.   GRADIENT

   1   13    1     1     1    1.0000E+05 -8.1059E+02   1.0081E+05  0.000E+00  0.000E+00  0.000E+00  4.84064E+01  1.450E-01  2.000E+01  2.000E+04 -4.053E-02
   1   13    2     1     2    1.0081E+05 -1.6576E+03   1.0247E+05  0.000E+00  0.000E+00  0.000E+00  4.79302E+01  1.461E-01  2.000E+01  2.000E+04 -8.288E-02
   1   14    3     1     3    1.0247E+05 -2.8487E+02   1.0275E+05  0.000E+00  0.000E+00  0.000E+00  4.74537E+01  1.469E-01  2.000E+01  2.000E+04 -1.424E-02
   1   15    4     1     4    1.0275E+05 -2.8247E+02   1.0304E+05  0.000E+00  0.000E+00  0.000E+00  4.69767E+01  1.471E-01  2.000E+01  2.000E+04 -1.412E-02
   1   16    5     1     5    1.0304E+05 -1.3824E+03   1.0442E+05  0.000E+00  0.000E+00  0.000E+00  4.65001E+01  1.479E-01  2.000E+01  2.000E+04 -6.912E-02
   1   16    6     1     6    1.0442E+05 -8.5399E+02   1.0527E+05  0.000E+00  0.000E+00  0.000E+00  4.60238E+01  1.488E-01  2.000E+01  2.000E+04 -4.270E-02
   1   16    7     1     7    1.0527E+05 -8.3833E+02   1.0611E+05  0.000E+00  0.000E+00  0.000E+00  4.55473E+01  1.495E-01  2.000E+01  2.000E+04 -4.192E-02
   1   16    8     1     8    1.0611E+05 -8.4052E+02   1.0695E+05  0.000E+00  0.000E+00  0.000E+00  4.50707E+01  1.502E-01  2.000E+01  2.000E+04 -4.203E-02
   1   16    9     1     9    1.0695E+05 -8.4465E+02   1.0780E+05  0.000E+00  0.000E+00  0.000E+00  4.45941E+01  1.510E-01  2.000E+01  2.000E+04 -4.223E-02
   1   16   10     1    10    1.0780E+05 -8.5099E+02   1.0865E+05  0.000E+00  0.000E+00  0.000E+00  4.41176E+01  1.517E-01  2.000E+01  2.000E+04 -4.255E-02
   1   16   11     1    11    1.0865E+05 -8.7679E+02   1.0952E+05  0.000E+00  0.000E+00  0.000E+00  4.36410E+01  1.524E-01  2.000E+01  2.000E+04 -4.384E-02
   1   16   12     1    12    1.0952E+05 -1.4501E+03   1.1097E+05  0.000E+00  0.000E+00  0.000E+00  4.31647E+01  1.534E-01  2.000E+01  2.000E+04 -7.251E-02
   1   15   13     1    13    1.1097E+05 -1.0767E+03   1.1205E+05  0.000E+00  0.000E+00  0.000E+00  4.26885E+01  1.544E-01  2.000E+01  2.000E+04 -5.383E-02
   1   14   14     1    14    1.1205E+05 -1.0863E+03   1.1314E+05  0.000E+00  0.000E+00  0.000E+00  4.22121E+01  1.553E-01  2.000E+01  2.000E+04 -5.432E-02
   1   13   15     1    15    1.1314E+05 -1.0830E+03   1.1422E+05  0.000E+00  0.000E+00  0.000E+00  4.17358E+01  1.562E-01  2.000E+01  2.000E+04 -5.415E-02
   1   12   16     1    16    1.1422E+05 -1.0010E+03   1.1522E+05  0.000E+00  0.000E+00  0.000E+00  4.12593E+01  1.571E-01  2.000E+01  2.000E+04 -5.005E-02
   1   12   17     1    17    1.1522E+05 -5.1463E+02   1.1573E+05  0.000E+00  0.000E+00  0.000E+00  4.07827E+01  1.577E-01  2.000E+01  2.000E+04 -2.573E-02
   1   12   18     1    18    1.1573E+05 -1.1356E+02   1.1585E+05  0.000E+00  0.000E+00  0.000E+00  4.03057E+01  1.580E-01  2.000E+01  2.000E+04 -5.678E-03
   1   12   19     1    19    1.1585E+05  1.8277E+03   1.1402E+05  0.000E+00  0.000E+00  0.000E+00  3.98277E+01  1.573E-01  2.000E+01  2.000E+04  9.138E-02
   1   13   20     1    20    1.1402E+05  1.4705E+03   1.1255E+05  0.000E+00  0.000E+00  0.000E+00  3.93491E+01  1.559E-01  2.000E+01  2.000E+04  7.353E-02
   1   14   21     1    21    1.1255E+05 -2.4332E+02   1.1279E+05  0.000E+00  0.000E+00  0.000E+00  3.88713E+01  1.554E-01  2.000E+01  2.000E+04 -1.217E-02
   1   14   22     1    22    1.1279E+05  5.4357E+03   1.0736E+05  0.000E+00  0.000E+00  0.000E+00  3.83919E+01  1.532E-01  2.000E+01  2.000E+04  2.718E-01
   1    9   30     2     1    5.0000E+04 -5.9040E+01   5.0059E+04  0.000E+00  0.000E+00  0.000E+00  4.02409E+01  1.159E-01  2.000E+01  2.000E+04 -2.952E-03
   1    9   29     2     2    5.0059E+04 -2.9764E+02   5.0357E+04  0.000E+00  0.000E+00  0.000E+00  3.99912E+01  1.162E-01  2.000E+01  2.000E+04 -1.488E-02
   1    9   28     2     3    5.0357E+04 -3.8171E+02   5.0738E+04  0.000E+00  0.000E+00  0.000E+00  3.97416E+01  1.166E-01  2.000E+01  2.000E+04 -1.909E-02
   1    9   27     2     4    5.0738E+04 -3.4877E+02   5.1087E+04  0.000E+00  0.000E+00  0.000E+00  3.94921E+01  1.171E-01  2.000E+01  2.000E+04 -1.744E-02
   1   10   26     2     5    5.1087E+04  1.6193E+03   4.9468E+04  0.000E+00  0.000E+00  0.000E+00  3.92413E+01  1.163E-01  2.000E+01  2.000E+04  8.096E-02
   1   11   25     2     6    4.9468E+04  3.0958E+03   4.6372E+04  0.000E+00  0.000E+00  0.000E+00  3.89879E+01  1.129E-01  2.000E+01  2.000E+04  1.548E-01
   1   12   24     2     7    4.6372E+04  2.9642E+03   4.3408E+04  0.000E+00  0.000E+00  0.000E+00  3.87336E+01  1.086E-01  2.000E+01  2.000E+04  1.482E-01
   1   13   23     2     8    4.3408E+04  4.3689E+02   4.2971E+04  0.000E+00  0.000E+00  0.000E+00  3.84811E+01  1.061E-01  2.000E+01  2.000E+04  2.184E-02
   1   14   22     2     9    4.2971E+04  2.1819E+03   4.0789E+04  0.000E+00  0.000E+00  0.000E+00  3.82292E+01  1.042E-01  2.000E+01  2.000E+04  1.091E-01
   1   14   22     3     1    1.4815E+05 -8.2012E+03   1.5635E+05  0.000E+00  0.000E+00  0.000E+00  3.77100E+01  1.545E-01  2.000E+01  2.000E+04 -4.101E-01
   1   15   23     3     2    1.5635E+05 -4.7019E+02   1.5682E+05  0.000E+00  0.000E+00  0.000E+00  3.68238E+01  1.571E-01  2.000E+01  2.000E+04 -2.351E-02
   1   15   24     3     3    1.5682E+05 -2.1487E+02   1.5703E+05  0.000E+00  0.000E+00  0.000E+00  3.59351E+01  1.573E-01  2.000E+01  2.000E+04 -1.074E-02
   1   15   25     3     4    1.5703E+05 -2.0548E+02   1.5724E+05  0.000E+00  0.000E+00  0.000E+00  3.50463E+01  1.574E-01  2.000E+01  2.000E+04 -1.027E-02
   1   15   26     3     5    1.5724E+05 -2.5180E+02   1.5749E+05  0.000E+00  0.000E+00  0.000E+00  3.41576E+01  1.576E-01  2.000E+01  2.000E+04 -1.259E-02
   1   16   27     3     6    1.5749E+05 -2.7483E+02   1.5777E+05  0.000E+00  0.000E+00  0.000E+00  3.32688E+01  1.577E-01  2.000E+01  2.000E+04 -1.374E-02
   1   17   28     3     7    1.5777E+05 -1.3215E+03   1.5909E+05  0.000E+00  0.000E+00  0.000E+00  3.23804E+01  1.582E-01  2.000E+01  2.000E+04 -6.608E-02
   1   18   29     3     8    1.5909E+05 -2.6824E+03   1.6177E+05  0.000E+00  0.000E+00  0.000E+00  3.14927E+01  1.594E-01  2.000E+01  2.000E+04 -1.341E-01
   1   18   30     3     9    1.6177E+05 -2.9977E+03   1.6477E+05  0.000E+00  0.000E+00  0.000E+00  3.06055E+01  1.611E-01  2.000E+01  2.000E+04 -1.499E-01



1
              HEAD IN LAYER   1 AT END OF TIME STEP   1 IN STRESS PERIOD   11
  ---------------------------------------------------------------------------

          1      2      3      4      5      6      7      8      9     10
         11     12     13     14     15     16     17     18     19     20
         21     22     23     24     25     26     27     28     29     30
 .........................................................................
   1  ****** ****** ****** ****** ****** ****** ****** ****** ****** ******
      ****** ****** ****** ****** ****** ****** ****** ****** ****** ******
      ****** ****** ****** ****** ****** ****** ****** ****** ****** ******
   2  ****** ****** ****** ****** ****** ****** ****** ****** ****** ******
      ****** ****** ****** ****** ****** ****** ****** ****** ****** ******
      ****** ****** ****** ****** ****** ****** ****** ****** ****** ******
   3  ****** ****** ****** ****** ****** ****** ****** ****** ****** ******
      ****** ****** ****** ****** ****** ****** ****** ****** ****** ******
      ****** ****** ****** ****** ****** ****** ****** ****** ****** ******
   4  ****** ****** ****** ****** ****** ****** ****** ****** ****** ******
      ****** ****** ****** ****** ****** ****** ****** ****** ****** ******
      ****** ****** ****** ****** ****** ****** ****** ****** ****** ******
   5  ****** ****** ****** ****** ****** ****** ****** ****** ****** ******
      ****** ****** ****** ****** ****** ****** ****** ****** ****** ******
      ****** ****** ****** ****** ****** ****** ****** ****** ****** ******
   6  ****** ****** ****** ****** ****** ****** ****** ****** ****** ******
      ****** ****** ****** ****** ****** ****** ****** ****** ****** ******
      ****** ****** ****** ****** ****** ****** ****** ****** ****** ******
   7  ****** ****** ****** ****** ****** ****** ****** ****** ****** ******
      ****** ****** ****** ****** ****** ****** ****** ****** ****** ******
      ****** ****** ****** ****** ****** ****** ****** ****** ****** ******
   8  ****** ****** ****** ****** ****** ****** ****** ****** ****** ******
      ****** ****** ****** ****** ****** ****** ****** ****** ****** ******
      ****** ****** ****** ****** ****** ****** ****** ****** ****** ******
   9  ****** ****** ****** ****** ****** ****** ****** ****** ****** ******
      ****** ****** ****** ****** ****** ****** ****** ****** ****** ******
      ****** ****** ****** ****** ****** ****** ****** ****** ****** ******
  10  ****** ****** ****** ****** ****** ****** ****** ****** ****** ******
      ****** ****** ****** ****** ****** ****** ****** ****** ****** ******
      ****** ****** ****** ****** ****** ****** ****** ****** ****** ******
  11  ****** ****** ****** ****** ****** ****** ****** ****** ****** ******
      ****** ****** ****** ****** ****** ****** ****** ****** ****** ******
      ****** ****** ****** ****** ****** ****** ****** ****** ****** ******
  12  ****** ****** ****** ****** ****** ****** ****** ****** ****** ******
      ****** ****** ****** ****** ****** ****** ****** ****** ****** ******
      ****** ****** ****** ****** ****** ****** ****** ****** ****** ******
  13  ****** ****** ****** ****** ****** ****** ****** ****** ****** ******
      ****** ****** ****** ****** ****** ****** ****** ****** ****** ******
      ****** ****** ****** ****** ****** ****** ****** ****** ****** ******
  14  ****** ****** ****** ****** ****** ****** ****** ****** ****** ******
      ****** ****** ****** ****** ****** ****** ****** ****** ****** ******
      ****** ****** ****** ****** ****** ****** ****** ****** ****** ******
  15  ****** ****** ****** ****** ****** ****** ****** ****** ****** ******
      ****** ****** ****** ****** ****** ****** ****** ****** ****** ******
      ****** ****** ****** ****** ****** ****** ****** ****** ****** ******
  16  ****** ****** ****** ****** ****** ****** ****** ****** ****** ******
      ****** ****** ****** ****** ****** ****** ****** ****** ****** ******
      ****** ****** ****** ****** ****** ****** ****** ****** ****** ******
  17  ****** ****** ****** ****** ****** ****** ****** ****** ****** ******
      ****** ****** ****** ****** ****** ****** ****** ****** ****** ******
      ****** ****** ****** ****** ****** ****** ****** ****** ****** ******
  18  ****** ****** ****** ****** ****** ****** ****** ****** ****** ******
      ****** ****** ****** ****** ****** ****** ****** ****** ****** ******
      ****** ****** ****** ****** ****** ****** ****** ****** ****** ******
  19  ****** ****** ****** ****** ****** ****** ****** ****** ****** ******
      ****** ****** ****** ****** ****** ****** ****** ****** ****** ******
      ****** ****** ****** ****** ****** ****** ****** ****** ****** ******
  20  ****** ****** ****** ****** ****** ****** ****** ****** ****** ******
      ****** ****** ****** ****** ****** ****** ****** ****** ****** ******
      ****** ****** ****** ****** ****** ****** ****** ****** ****** ******
  21  ****** ****** ****** ****** ****** ****** ****** ****** ****** ******
      ****** ****** ****** ****** ****** ****** ****** ****** ****** ******
      ****** ****** ****** ****** ****** ****** ****** ****** ****** ******
  22  ****** ****** ****** ****** ****** ****** ****** ****** ****** ******
      ****** ****** ****** ****** ****** ****** ****** ****** ****** ******
      ****** ****** ****** ****** ****** ****** ****** ****** ****** ******
  23  ****** ****** ****** ****** ****** ****** ****** ****** ****** ******
      ****** ****** ****** ****** ****** ****** ****** ****** ****** ******
      ****** ****** ****** ****** ****** ****** ****** ****** ****** ******
  24  ****** ****** ****** ****** ****** ****** ****** ****** ****** ******
      ****** ****** ****** ****** ****** ****** ****** ****** ****** ******
      ****** ****** ****** ****** ****** ****** ****** ****** ****** ******
  25  ****** ****** ****** ****** ****** ****** ****** ****** ****** ******
      ****** ****** ****** ****** ****** ****** ****** ****** ****** ******
      ****** ****** ****** ****** ****** ****** ****** ****** ****** ******

 HEAD WILL BE SAVED ON UNIT   51 AT END OF TIME STEP    1, STRESS PERIOD   11
1
  VOLUMETRIC BUDGET FOR ENTIRE MODEL AT END OF TIME STEP    1, STRESS PERIOD  11
  ------------------------------------------------------------------------------

     CUMULATIVE VOLUMES      L**3       RATES FOR THIS TIME STEP      L**3/T
     ------------------                 ------------------------

           IN:                                      IN:
           ---                                      ---
             STORAGE =    37335721.2065               STORAGE =       18236.8597
       CONSTANT HEAD =    29975255.5163         CONSTANT HEAD =       36692.3544
               WELLS =           0.0000                 WELLS =           0.0000
            RECHARGE =    23901600.0000              RECHARGE =           0.0000
      STREAM LEAKAGE =    14653166.0642        STREAM LEAKAGE =       19032.0777

            TOTAL IN =   105865742.7870              TOTAL IN =       73961.2918

          OUT:                                     OUT:
          ----                                     ----
             STORAGE =     2226966.5238               STORAGE =           0.0000
       CONSTANT HEAD =           0.0000         CONSTANT HEAD =           0.0000
               WELLS =    40323003.1673                 WELLS =       40162.3538
            RECHARGE =           0.0000              RECHARGE =           0.0000
      STREAM LEAKAGE =    63315775.2422        STREAM LEAKAGE =       33798.9431

           TOTAL OUT =   105865744.9334             TOTAL OUT =       73961.2969

            IN - OUT =          -2.1464              IN - OUT =      -5.0214E-03

 PERCENT DISCREPANCY =          -0.00     PERCENT DISCREPANCY =          -0.00






         TIME SUMMARY AT END OF TIME STEP    1 IN STRESS PERIOD   11
                    SECONDS     MINUTES      HOURS       DAYS        YEARS
                    -----------------------------------------------------------
   TIME STEP LENGTH 7.86240E+06 1.31040E+05  2184.0      91.000     0.24914    
 STRESS PERIOD TIME 7.86240E+06 1.31040E+05  2184.0      91.000     0.24914    
         TOTAL TIME 8.67456E+07 1.44576E+06  24096.      1004.0      2.7488    
1
1
                            STRESS PERIOD NO.   12, LENGTH =   91.00000    
                            -----------------------------------------------

                              NUMBER OF TIME STEPS =     1

                               MULTIPLIER FOR DELT =     1.500

                            INITIAL TIME STEP SIZE =   91.00000    

 WELL NO.  LAYER   ROW   COL   STRESS RATE         
 --------------------------------------------------
      1      1     10     24     -0.1046E+05
      2      1      7      8      -7751.    
      3      1      5     20      -7335.    
      4      1     11     21     -0.1462E+05

      4 WELLS

                 RECHARGE =  1.000000E-03

 REUSING STREAM SEGMENT DATA FROM LAST STRESS PERIOD
 
 SOLVING FOR HEAD 


     7 CALLS TO PCG ROUTINE FOR TIME STEP   1 IN STRESS PERIOD   12
    24 TOTAL ITERATIONS

 OUTPUT CONTROL FOR STRESS PERIOD   12   TIME STEP    1
    SAVE BUDGET
    SAVE HEAD FOR ALL LAYERS
    PRINT HEAD FOR ALL LAYERS
 UBDSV2 SAVING "STREAMFLOW OUT  " ON UNIT  50 AT TIME STEP  1, STRESS PERIOD  12



 STREAM LISTING     PERIOD     12   STEP        1

 LAYER ROW COL. STREAM  RCH.  FLOW INTO     FLOW TO   FLOW OUT OF   OVRLND.     DIRECT     STREAM       STREAM     STREAM     STREAM   STREAMBED  STREAMBED
                SEG.NO.  NO.  STRM. RCH.    AQUIFER    STRM. RCH.    RUNOFF     PRECIP       ET          HEAD       DEPTH      WIDTH   CONDCTNC.   GRADIENT

   1   13    1     1     1    1.0000E+05 -9.4739E+02   1.0095E+05  0.000E+00  0.000E+00  0.000E+00  4.84064E+01  1.451E-01  2.000E+01  2.000E+04 -4.737E-02
   1   13    2     1     2    1.0095E+05 -1.8038E+03   1.0275E+05  0.000E+00  0.000E+00  0.000E+00  4.79303E+01  1.463E-01  2.000E+01  2.000E+04 -9.019E-02
   1   14    3     1     3    1.0275E+05 -3.6204E+02   1.0311E+05  0.000E+00  0.000E+00  0.000E+00  4.74540E+01  1.472E-01  2.000E+01  2.000E+04 -1.810E-02
   1   15    4     1     4    1.0311E+05 -3.6372E+02   1.0348E+05  0.000E+00  0.000E+00  0.000E+00  4.69770E+01  1.475E-01  2.000E+01  2.000E+04 -1.819E-02
   1   16    5     1     5    1.0348E+05 -1.5916E+03   1.0507E+05  0.000E+00  0.000E+00  0.000E+00  4.65006E+01  1.483E-01  2.000E+01  2.000E+04 -7.958E-02
   1   16    6     1     6    1.0507E+05 -9.8352E+02   1.0605E+05  0.000E+00  0.000E+00  0.000E+00  4.60244E+01  1.494E-01  2.000E+01  2.000E+04 -4.918E-02
   1   16    7     1     7    1.0605E+05 -9.6268E+02   1.0701E+05  0.000E+00  0.000E+00  0.000E+00  4.55480E+01  1.503E-01  2.000E+01  2.000E+04 -4.813E-02
   1   16    8     1     8    1.0701E+05 -9.6385E+02   1.0798E+05  0.000E+00  0.000E+00  0.000E+00  4.50715E+01  1.511E-01  2.000E+01  2.000E+04 -4.819E-02
   1   16    9     1     9    1.0798E+05 -9.6855E+02   1.0895E+05  0.000E+00  0.000E+00  0.000E+00  4.45951E+01  1.519E-01  2.000E+01  2.000E+04 -4.843E-02
   1   16   10     1    10    1.0895E+05 -9.7646E+02   1.0992E+05  0.000E+00  0.000E+00  0.000E+00  4.41186E+01  1.527E-01  2.000E+01  2.000E+04 -4.882E-02
   1   16   11     1    11    1.0992E+05 -1.0048E+03   1.1093E+05  0.000E+00  0.000E+00  0.000E+00  4.36422E+01  1.535E-01  2.000E+01  2.000E+04 -5.024E-02
   1   16   12     1    12    1.1093E+05 -1.6510E+03   1.1258E+05  0.000E+00  0.000E+00  0.000E+00  4.31660E+01  1.546E-01  2.000E+01  2.000E+04 -8.255E-02
   1   15   13     1    13    1.1258E+05 -1.2911E+03   1.1387E+05  0.000E+00  0.000E+00  0.000E+00  4.26899E+01  1.558E-01  2.000E+01  2.000E+04 -6.456E-02
   1   14   14     1    14    1.1387E+05 -1.3003E+03   1.1517E+05  0.000E+00  0.000E+00  0.000E+00  4.22137E+01  1.569E-01  2.000E+01  2.000E+04 -6.501E-02
   1   13   15     1    15    1.1517E+05 -1.2888E+03   1.1646E+05  0.000E+00  0.000E+00  0.000E+00  4.17375E+01  1.580E-01  2.000E+01  2.000E+04 -6.444E-02
   1   12   16     1    16    1.1646E+05 -1.1788E+03   1.1764E+05  0.000E+00  0.000E+00  0.000E+00  4.12613E+01  1.590E-01  2.000E+01  2.000E+04 -5.894E-02
   1   12   17     1    17    1.1764E+05 -6.6535E+02   1.1830E+05  0.000E+00  0.000E+00  0.000E+00  4.07847E+01  1.597E-01  2.000E+01  2.000E+04 -3.327E-02
   1   12   18     1    18    1.1830E+05 -2.6698E+02   1.1857E+05  0.000E+00  0.000E+00  0.000E+00  4.03078E+01  1.601E-01  2.000E+01  2.000E+04 -1.335E-02
   1   12   19     1    19    1.1857E+05  1.6379E+03   1.1693E+05  0.000E+00  0.000E+00  0.000E+00  3.98300E+01  1.596E-01  2.000E+01  2.000E+04  8.189E-02
   1   13   20     1    20    1.1693E+05  1.2611E+03   1.1567E+05  0.000E+00  0.000E+00  0.000E+00  3.93516E+01  1.584E-01  2.000E+01  2.000E+04  6.306E-02
   1   14   21     1    21    1.1567E+05 -4.3735E+02   1.1611E+05  0.000E+00  0.000E+00  0.000E+00  3.88739E+01  1.580E-01  2.000E+01  2.000E+04 -2.187E-02
   1   14   22     1    22    1.1611E+05  5.3811E+03   1.1073E+05  0.000E+00  0.000E+00  0.000E+00  3.83946E+01  1.560E-01  2.000E+01  2.000E+04  2.691E-01
   1    9   30     2     1    5.0000E+04 -2.3492E+02   5.0235E+04  0.000E+00  0.000E+00  0.000E+00  4.02410E+01  1.160E-01  2.000E+01  2.000E+04 -1.175E-02
   1    9   29     2     2    5.0235E+04 -4.7142E+02   5.0706E+04  0.000E+00  0.000E+00  0.000E+00  3.99915E+01  1.165E-01  2.000E+01  2.000E+04 -2.357E-02
   1    9   28     2     3    5.0706E+04 -5.5184E+02   5.1258E+04  0.000E+00  0.000E+00  0.000E+00  3.97422E+01  1.172E-01  2.000E+01  2.000E+04 -2.759E-02
   1    9   27     2     4    5.1258E+04 -5.5636E+02   5.1815E+04  0.000E+00  0.000E+00  0.000E+00  3.94930E+01  1.180E-01  2.000E+01  2.000E+04 -2.782E-02
   1   10   26     2     5    5.1815E+04  1.3908E+03   5.0424E+04  0.000E+00  0.000E+00  0.000E+00  3.92424E+01  1.174E-01  2.000E+01  2.000E+04  6.954E-02
   1   11   25     2     6    5.0424E+04  2.8712E+03   4.7553E+04  0.000E+00  0.000E+00  0.000E+00  3.89895E+01  1.145E-01  2.000E+01  2.000E+04  1.436E-01
   1   12   24     2     7    4.7553E+04  2.7594E+03   4.4793E+04  0.000E+00  0.000E+00  0.000E+00  3.87355E+01  1.105E-01  2.000E+01  2.000E+04  1.380E-01
   1   13   23     2     8    4.4793E+04  3.5951E+02   4.4434E+04  0.000E+00  0.000E+00  0.000E+00  3.84832E+01  1.082E-01  2.000E+01  2.000E+04  1.798E-02
   1   14   22     2     9    4.4434E+04  2.1162E+03   4.2317E+04  0.000E+00  0.000E+00  0.000E+00  3.82314E+01  1.064E-01  2.000E+01  2.000E+04  1.058E-01
   1   14   22     3     1    1.5305E+05 -8.2517E+03   1.6130E+05  0.000E+00  0.000E+00  0.000E+00  3.77130E+01  1.574E-01  2.000E+01  2.000E+04 -4.126E-01
   1   15   23     3     2    1.6130E+05 -5.4228E+02   1.6184E+05  0.000E+00  0.000E+00  0.000E+00  3.68267E+01  1.601E-01  2.000E+01  2.000E+04 -2.711E-02
   1   15   24     3     3    1.6184E+05 -2.7999E+02   1.6212E+05  0.000E+00  0.000E+00  0.000E+00  3.59381E+01  1.603E-01  2.000E+01  2.000E+04 -1.400E-02
   1   15   25     3     4    1.6212E+05 -2.7187E+02   1.6239E+05  0.000E+00  0.000E+00  0.000E+00  3.50494E+01  1.605E-01  2.000E+01  2.000E+04 -1.359E-02
   1   15   26     3     5    1.6239E+05 -3.2929E+02   1.6272E+05  0.000E+00  0.000E+00  0.000E+00  3.41607E+01  1.607E-01  2.000E+01  2.000E+04 -1.646E-02
   1   16   27     3     6    1.6272E+05 -3.6165E+02   1.6308E+05  0.000E+00  0.000E+00  0.000E+00  3.32720E+01  1.609E-01  2.000E+01  2.000E+04 -1.808E-02
   1   17   28     3     7    1.6308E+05 -1.5424E+03   1.6462E+05  0.000E+00  0.000E+00  0.000E+00  3.23836E+01  1.614E-01  2.000E+01  2.000E+04 -7.712E-02
   1   18   29     3     8    1.6462E+05 -2.8834E+03   1.6751E+05  0.000E+00  0.000E+00  0.000E+00  3.14961E+01  1.627E-01  2.000E+01  2.000E+04 -1.442E-01
   1   18   30     3     9    1.6751E+05 -3.1660E+03   1.7067E+05  0.000E+00  0.000E+00  0.000E+00  3.06089E+01  1.645E-01  2.000E+01  2.000E+04 -1.583E-01



1
              HEAD IN LAYER   1 AT END OF TIME STEP   1 IN STRESS PERIOD   12
  ---------------------------------------------------------------------------

          1      2      3      4      5      6      7      8      9     10
         11     12     13     14     15     16     17     18     19     20
         21     22     23     24     25     26     27     28     29     30
 .........................................................................
   1  ****** ****** ****** ****** ****** ****** ****** ****** ****** ******
      ****** ****** ****** ****** ****** ****** ****** ****** ****** ******
      ****** ****** ****** ****** ****** ****** ****** ****** ****** ******
   2  ****** ****** ****** ****** ****** ****** ****** ****** ****** ******
      ****** ****** ****** ****** ****** ****** ****** ****** ****** ******
      ****** ****** ****** ****** ****** ****** ****** ****** ****** ******
   3  ****** ****** ****** ****** ****** ****** ****** ****** ****** ******
      ****** ****** ****** ****** ****** ****** ****** ****** ****** ******
      ****** ****** ****** ****** ****** ****** ****** ****** ****** ******
   4  ****** ****** ****** ****** ****** ****** ****** ****** ****** ******
      ****** ****** ****** ****** ****** ****** ****** ****** ****** ******
      ****** ****** ****** ****** ****** ****** ****** ****** ****** ******
   5  ****** ****** ****** ****** ****** ****** ****** ****** ****** ******
      ****** ****** ****** ****** ****** ****** ****** ****** ****** ******
      ****** ****** ****** ****** ****** ****** ****** ****** ****** ******
   6  ****** ****** ****** ****** ****** ****** ****** ****** ****** ******
      ****** ****** ****** ****** ****** ****** ****** ****** ****** ******
      ****** ****** ****** ****** ****** ****** ****** ****** ****** ******
   7  ****** ****** ****** ****** ****** ****** ****** ****** ****** ******
      ****** ****** ****** ****** ****** ****** ****** ****** ****** ******
      ****** ****** ****** ****** ****** ****** ****** ****** ****** ******
   8  ****** ****** ****** ****** ****** ****** ****** ****** ****** ******
      ****** ****** ****** ****** ****** ****** ****** ****** ****** ******
      ****** ****** ****** ****** ****** ****** ****** ****** ****** ******
   9  ****** ****** ****** ****** ****** ****** ****** ****** ****** ******
      ****** ****** ****** ****** ****** ****** ****** ****** ****** ******
      ****** ****** ****** ****** ****** ****** ****** ****** ****** ******
  10  ****** ****** ****** ****** ****** ****** ****** ****** ****** ******
      ****** ****** ****** ****** ****** ****** ****** ****** ****** ******
      ****** ****** ****** ****** ****** ****** ****** ****** ****** ******
  11  ****** ****** ****** ****** ****** ****** ****** ****** ****** ******
      ****** ****** ****** ****** ****** ****** ****** ****** ****** ******
      ****** ****** ****** ****** ****** ****** ****** ****** ****** ******
  12  ****** ****** ****** ****** ****** ****** ****** ****** ****** ******
      ****** ****** ****** ****** ****** ****** ****** ****** ****** ******
      ****** ****** ****** ****** ****** ****** ****** ****** ****** ******
  13  ****** ****** ****** ****** ****** ****** ****** ****** ****** ******
      ****** ****** ****** ****** ****** ****** ****** ****** ****** ******
      ****** ****** ****** ****** ****** ****** ****** ****** ****** ******
  14  ****** ****** ****** ****** ****** ****** ****** ****** ****** ******
      ****** ****** ****** ****** ****** ****** ****** ****** ****** ******
      ****** ****** ****** ****** ****** ****** ****** ****** ****** ******
  15  ****** ****** ****** ****** ****** ****** ****** ****** ****** ******
      ****** ****** ****** ****** ****** ****** ****** ****** ****** ******
      ****** ****** ****** ****** ****** ****** ****** ****** ****** ******
  16  ****** ****** ****** ****** ****** ****** ****** ****** ****** ******
      ****** ****** ****** ****** ****** ****** ****** ****** ****** ******
      ****** ****** ****** ****** ****** ****** ****** ****** ****** ******
  17  ****** ****** ****** ****** ****** ****** ****** ****** ****** ******
      ****** ****** ****** ****** ****** ****** ****** ****** ****** ******
      ****** ****** ****** ****** ****** ****** ****** ****** ****** ******
  18  ****** ****** ****** ****** ****** ****** ****** ****** ****** ******
      ****** ****** ****** ****** ****** ****** ****** ****** ****** ******
      ****** ****** ****** ****** ****** ****** ****** ****** ****** ******
  19  ****** ****** ****** ****** ****** ****** ****** ****** ****** ******
      ****** ****** ****** ****** ****** ****** ****** ****** ****** ******
      ****** ****** ****** ****** ****** ****** ****** ****** ****** ******
  20  ****** ****** ****** ****** ****** ****** ****** ****** ****** ******
      ****** ****** ****** ****** ****** ****** ****** ****** ****** ******
      ****** ****** ****** ****** ****** ****** ****** ****** ****** ******
  21  ****** ****** ****** ****** ****** ****** ****** ****** ****** ******
      ****** ****** ****** ****** ****** ****** ****** ****** ****** ******
      ****** ****** ****** ****** ****** ****** ****** ****** ****** ******
  22  ****** ****** ****** ****** ****** ****** ****** ****** ****** ******
      ****** ****** ****** ****** ****** ****** ****** ****** ****** ******
      ****** ****** ****** ****** ****** ****** ****** ****** ****** ******
  23  ****** ****** ****** ****** ****** ****** ****** ****** ****** ******
      ****** ****** ****** ****** ****** ****** ****** ****** ****** ******
      ****** ****** ****** ****** ****** ****** ****** ****** ****** ******
  24  ****** ****** ****** ****** ****** ****** ****** ****** ****** ******
      ****** ****** ****** ****** ****** ****** ****** ****** ****** ******
      ****** ****** ****** ****** ****** ****** ****** ****** ****** ******
  25  ****** ****** ****** ****** ****** ****** ****** ****** ****** ******
      ****** ****** ****** ****** ****** ****** ****** ****** ****** ******
      ****** ****** ****** ****** ****** ****** ****** ****** ****** ******

 HEAD WILL BE SAVED ON UNIT   51 AT END OF TIME STEP    1, STRESS PERIOD   12
1
  VOLUMETRIC BUDGET FOR ENTIRE MODEL AT END OF TIME STEP    1, STRESS PERIOD  12
  ------------------------------------------------------------------------------

     CUMULATIVE VOLUMES      L**3       RATES FOR THIS TIME STEP      L**3/T
     ------------------                 ------------------------

           IN:                                      IN:
           ---                                      ---
             STORAGE =    37343362.1297               STORAGE =          83.9662
       CONSTANT HEAD =    33253032.7817         CONSTANT HEAD =       36019.5304
               WELLS =           0.0000                 WELLS =           0.0000
            RECHARGE =    26413200.0000              RECHARGE =       27600.0000
      STREAM LEAKAGE =    16270897.5999        STREAM LEAKAGE =       17777.2696

            TOTAL IN =   113280492.5113              TOTAL IN =       81480.7662

          OUT:                                     OUT:
          ----                                     ----
             STORAGE =     2487887.3615               STORAGE =        2867.2620
       CONSTANT HEAD =           0.0000         CONSTANT HEAD =           0.0000
               WELLS =    43977777.3588                 WELLS =       40162.3538
            RECHARGE =           0.0000              RECHARGE =           0.0000
      STREAM LEAKAGE =    66814829.8590        STREAM LEAKAGE =       38451.1496

           TOTAL OUT =   113280494.5792             TOTAL OUT =       81480.7653

            IN - OUT =          -2.0679              IN - OUT =       8.6289E-04

 PERCENT DISCREPANCY =          -0.00     PERCENT DISCREPANCY =           0.00






         TIME SUMMARY AT END OF TIME STEP    1 IN STRESS PERIOD   12
                    SECONDS     MINUTES      HOURS       DAYS        YEARS
                    -----------------------------------------------------------
   TIME STEP LENGTH 7.86240E+06 1.31040E+05  2184.0      91.000     0.24914    
 STRESS PERIOD TIME 7.86240E+06 1.31040E+05  2184.0      91.000     0.24914    
         TOTAL TIME 9.46080E+07 1.57680E+06  26280.      1095.0      2.9979    
1

 Run end date and time (yyyy/mm/dd hh:mm:ss): 2018/10/14 20:06:52
 Elapsed run time:  0.085 Seconds

