                                  MODFLOW-2005     
      U.S. GEOLOGICAL SURVEY MODULAR FINITE-DIFFERENCE GROUND-WATER FLOW MODEL
                            VERSION 1.11.00 8/8/2013

 LIST FILE: supply2.lst
                         UNIT   10

 OPENING ..\data\supply.dis
 FILE TYPE:DIS   UNIT   11   STATUS:OLD    
 FORMAT:FORMATTED              ACCESS:SEQUENTIAL          

 OPENING ..\data\supply.ba6
 FILE TYPE:BAS6   UNIT   12   STATUS:OLD    
 FORMAT:FORMATTED              ACCESS:SEQUENTIAL          

 OPENING ..\data\supply_het.bc6
 FILE TYPE:BCF6   UNIT   13   STATUS:OLD    
 FORMAT:FORMATTED              ACCESS:SEQUENTIAL          

 OPENING ..\data\supply.rch
 FILE TYPE:RCH   UNIT   15   STATUS:OLD    
 FORMAT:FORMATTED              ACCESS:SEQUENTIAL          

 OPENING ..\data\supply2.sfr
 FILE TYPE:SFR   UNIT   16   STATUS:OLD    
 FORMAT:FORMATTED              ACCESS:SEQUENTIAL          

 OPENING ..\data\supply.oc
 FILE TYPE:OC   UNIT   17   STATUS:OLD    
 FORMAT:FORMATTED              ACCESS:SEQUENTIAL          

 OPENING ..\data\supply.pcg
 FILE TYPE:PCG   UNIT   18   STATUS:OLD    
 FORMAT:FORMATTED              ACCESS:SEQUENTIAL          

 OPENING supply2.wel
 FILE TYPE:WEL   UNIT   19   STATUS:OLD    
 FORMAT:FORMATTED              ACCESS:SEQUENTIAL          

 OPENING supply2sf.cbc
 FILE TYPE:DATA(BINARY)   UNIT   50   STATUS:UNKNOWN
 FORMAT:BINARY                 ACCESS:SEQUENTIAL          

 OPENING supply2hd.bhd
 FILE TYPE:DATA(BINARY)   UNIT   51   STATUS:UNKNOWN
 FORMAT:BINARY                 ACCESS:SEQUENTIAL          

 BAS -- BASIC PACKAGE, VERSION 7, 5/2/2005 INPUT READ FROM UNIT   12
 
 MODFLOW was compiled using uniform precision
 Precision of REAL and DOUBLE PRECISION variables:          15

 DISCRETIZATION INPUT DATA READ FROM UNIT   11
    1 LAYERS        25 ROWS        30 COLUMNS
   12 STRESS PERIOD(S) IN SIMULATION
 MODEL TIME UNIT IS DAYS
 MODEL LENGTH UNIT IS UNDEFINED
  Confining bed flag for each layer:
   0

                     DELR =   200.000    

                     DELC =   200.000    

 TOP ELEVATION OF LAYER 1 =  100.0000    

   MODEL LAYER BOTTOM EL. =   0.00000     FOR LAYER   1


 STRESS PERIOD     LENGTH       TIME STEPS     MULTIPLIER FOR DELT    SS FLAG
 ----------------------------------------------------------------------------
        1         92.00000          1                    1.500         TR
        2         91.00000          1                    1.500         TR
        3         91.00000          1                    1.500         TR
        4         91.00000          1                    1.500         TR
        5         92.00000          1                    1.500         TR
        6         91.00000          1                    1.500         TR
        7         91.00000          1                    1.500         TR
        8         91.00000          1                    1.500         TR
        9         92.00000          1                    1.500         TR
       10         91.00000          1                    1.500         TR
       11         91.00000          1                    1.500         TR
       12         91.00000          1                    1.500         TR

 TRANSIENT SIMULATION



 
 #MODOFC transient water supply sample problem                                   
 #                                                                               
 THE FREE FORMAT OPTION HAS BEEN SELECTED



                     BOUNDARY ARRAY FOR LAYER   1
 READING ON UNIT   12 WITH FORMAT: (20I4)              

 AQUIFER HEAD WILL BE SET TO   0.0000     AT ALL NO-FLOW NODES (IBOUND=0).



                       INITIAL HEAD FOR LAYER   1
 READING ON UNIT   12 WITH FORMAT: (10F13.0)           

 OUTPUT CONTROL IS SPECIFIED ONLY AT TIME STEPS FOR WHICH OUTPUT IS DESIRED
 COMPACT CELL-BY-CELL BUDGET FILES WILL BE WRITTEN
 HEAD PRINT FORMAT CODE IS  18    DRAWDOWN PRINT FORMAT CODE IS   0
 HEADS WILL BE SAVED ON UNIT   51    DRAWDOWNS WILL BE SAVED ON UNIT    0

 BCF -- BLOCK-CENTERED FLOW PACKAGE, VERSION 7, 5/2/2005
         INPUT READ FROM UNIT 13
 TRANSIENT SIMULATION
 HEAD AT CELLS THAT CONVERT TO DRY=   0.0000    
 WETTING CAPABILITY IS NOT ACTIVE
      LAYER  LAYER-TYPE CODE     INTERBLOCK T
      --------------------------------------------
         1            0          0 -- HARMONIC    

 COLUMN TO ROW ANISOTROPY =  1.000000    

     PRIMARY STORAGE COEF =  5.000000E-02 FOR LAYER   1



               TRANSMIS. ALONG ROWS FOR LAYER   1
 READING ON UNIT   13 WITH FORMAT: (FREE)              

 WEL -- WELL PACKAGE, VERSION 7, 5/2/2005 INPUT READ FROM UNIT   19
 # Well package input file written by MMProc
 No named parameters
 MAXIMUM OF      4 ACTIVE WELLS AT ONE TIME


     0 Well parameters

 RCH -- RECHARGE PACKAGE, VERSION 7, 5/2/2005 INPUT READ FROM UNIT   15
 No named parameters
 OPTION 1 -- RECHARGE TO TOP LAYER


     0 Recharge parameters

 SFR7 -- STREAMFLOW ROUTING PACKAGE, VERSION 1.0.7, 2013-01-15
         INPUT READ FROM UNIT  16
 #  Supply2 test problem for GWM-VI
 #  The eighth entry in the first data line is ISTCB2 -
 #    Setting this to a negative number indicates that
 #    streamflows out of the reach will be saved to a
 #    binary file.  The absolute value of ISTCB2 is the
 #    unit to which unformatted flows will be written.
 #
 No named parameters
 Segment information will not be 
 read by reach
 No named parameters
 No specifed inflow files


 NUMBER OF STREAM REACHES IS   40

 NUMBER OF STREAM SEGMENTS IS    3

 NUMBER OF STREAM PARAMETERS IS    0

 NUMBER OF STREAM SEGMENTS DEFINED USING PARAMETERS IS              0

 MAXIMUM ERROR FOR STREAM LEAKAGE RATES IS  1.00E-04

 CONSTANT FOR MANNINGS EQUATION IS  1.2839E+05





   STREAM NETWORK DESCRIPTION: 

   LAYER    ROW    COL   SEGMENT   REACH     LENGTH
                          NUMBER   NUMBER    IN CELL        
   --------------------------------------------------
      1     13      1       1        1    2.0000E+02
      1     13      2       1        2    2.0000E+02
      1     14      3       1        3    2.0000E+02
      1     15      4       1        4    2.0000E+02
      1     16      5       1        5    2.0000E+02
      1     16      6       1        6    2.0000E+02
      1     16      7       1        7    2.0000E+02
      1     16      8       1        8    2.0000E+02
      1     16      9       1        9    2.0000E+02
      1     16     10       1       10    2.0000E+02
      1     16     11       1       11    2.0000E+02
      1     16     12       1       12    2.0000E+02
      1     15     13       1       13    2.0000E+02
      1     14     14       1       14    2.0000E+02
      1     13     15       1       15    2.0000E+02
      1     12     16       1       16    2.0000E+02
      1     12     17       1       17    2.0000E+02
      1     12     18       1       18    2.0000E+02
      1     12     19       1       19    2.0000E+02
      1     13     20       1       20    2.0000E+02
      1     14     21       1       21    2.0000E+02
      1     14     22       1       22    2.0000E+02
      1      9     30       2        1    2.0000E+02
      1      9     29       2        2    2.0000E+02
      1      9     28       2        3    2.0000E+02
      1      9     27       2        4    2.0000E+02
      1     10     26       2        5    2.0000E+02
      1     11     25       2        6    2.0000E+02
      1     12     24       2        7    2.0000E+02
      1     13     23       2        8    2.0000E+02
      1     14     22       2        9    2.0000E+02
      1     14     22       3        1    2.0000E+02
      1     15     23       3        2    2.0000E+02
      1     15     24       3        3    2.0000E+02
      1     15     25       3        4    2.0000E+02
      1     15     26       3        5    2.0000E+02
      1     16     27       3        6    2.0000E+02
      1     17     28       3        7    2.0000E+02
      1     18     29       3        8    2.0000E+02
      1     18     30       3        9    2.0000E+02




 PCG -- CONJUGATE-GRADIENT SOLUTION PACKAGE, VERSION 7, 5/2/2005
 MAXIMUM OF    500 CALLS OF SOLUTION ROUTINE
 MAXIMUM OF      5 INTERNAL ITERATIONS PER CALL TO SOLUTION ROUTINE
 MATRIX PRECONDITIONING TYPE :    1



                                    SOLUTION BY THE CONJUGATE-GRADIENT METHOD
                                   -------------------------------------------
                    MAXIMUM NUMBER OF CALLS TO PCG ROUTINE =      500
                        MAXIMUM ITERATIONS PER CALL TO PCG =        5
                               MATRIX PRECONDITIONING TYPE =        1
        RELAXATION FACTOR (ONLY USED WITH PRECOND. TYPE 1) =    0.10000E+01
 PARAMETER OF POLYNOMIAL PRECOND. = 2 (2) OR IS CALCULATED :        0
                         HEAD CHANGE CRITERION FOR CLOSURE =    0.10000E-05
                     RESIDUAL CHANGE CRITERION FOR CLOSURE =    0.10000E+01
            PCG HEAD AND RESIDUAL CHANGE PRINTOUT INTERVAL =        1
     PRINTING FROM SOLVER IS LIMITED(1) OR SUPPRESSED (>1) =        1
                            STEADY-STATE DAMPING PARAMETER =    0.10000E+01
                               TRANSIENT DAMPING PARAMETER =    0.10000E+01
1
                            STRESS PERIOD NO.    1, LENGTH =   92.00000    
                            -----------------------------------------------

                              NUMBER OF TIME STEPS =     1

                               MULTIPLIER FOR DELT =     1.500

                            INITIAL TIME STEP SIZE =   92.00000    

 WELL NO.  LAYER   ROW   COL   STRESS RATE         
 --------------------------------------------------
      1      1      9     21      -9430.    
      2      1      5     25     -0.1289E+05
      3      1     22     18      -7019.    
      4      1     19      6      -9882.    

      4 WELLS

                 RECHARGE =  5.000000E-04



 CLASSIFICATION & COUNT OF STREAM SEGMENTS BASED ON SOURCE OF INFLOW:

                HEADWATER     DIVERSION     RECEIVES TRIBUTARY FLOW
                ---------     ---------     -----------------------
                     2              0               1



                    INPUT DATA FOR EACH STREAM SEGMENT
 ---------------------------------------------------------------------------------------------

 SEGMENT    SEG.     INFLOW   OVERLAND   STREAM    STREAM   ICALC  OUTFLOW  DIVERSION PRIORITY
    NO.    LENGTH     RATE     RUNOFF      ET       PPT.    METH.  TO SEG.  FROM SEG.    NO.

      1  4.400E+03 1.000E+05 0.000E+00 0.000E+00 0.000E+00    1        3        0        0
      2  1.800E+03 5.000E+04 0.000E+00 0.000E+00 0.000E+00    1        3        0        0
      3  1.800E+03 0.000E+00 0.000E+00 0.000E+00 0.000E+00    1        0        0        0


         STREAMBED PROPERTIES AND STREAM DIMENSIONS

 SEGMENT     BED HYD. COND.      BED THICKNESS     ELEV.-TOP OF BED     WIDTH OF STREAM     DEPTH OF STREAM    STREAM ROUGHNESS
    No.     UPPER     LOWER     UPPER     LOWER     UPPER     LOWER     UPPER     LOWER     UPPER     LOWER   CHANNEL      BANK

     1  5.000E+00 5.000E+00 1.000E+00 1.000E+00 4.850E+01 3.800E+01 2.000E+01 2.000E+01                     5.000E-02
     2  5.000E+00 5.000E+00 1.000E+00 1.000E+00 4.025E+01 3.800E+01 2.000E+01 2.000E+01                     5.000E-02
     3  5.000E+00 5.000E+00 1.000E+00 1.000E+00 3.800E+01 3.000E+01 2.000E+01 2.000E+01                     5.000E-02



 
 SOLVING FOR HEAD 


     9 CALLS TO PCG ROUTINE FOR TIME STEP   1 IN STRESS PERIOD    1
    36 TOTAL ITERATIONS

 OUTPUT CONTROL FOR STRESS PERIOD    1   TIME STEP    1
    SAVE BUDGET
    SAVE HEAD FOR ALL LAYERS
    PRINT HEAD FOR ALL LAYERS
 UBDSV2 SAVING "STREAMFLOW OUT  " ON UNIT  50 AT TIME STEP  1, STRESS PERIOD   1



 STREAM LISTING     PERIOD      1   STEP        1

 LAYER ROW COL. STREAM  RCH.  FLOW INTO     FLOW TO   FLOW OUT OF   OVRLND.     DIRECT     STREAM       STREAM     STREAM     STREAM   STREAMBED  STREAMBED
                SEG.NO.  NO.  STRM. RCH.    AQUIFER    STRM. RCH.    RUNOFF     PRECIP       ET          HEAD       DEPTH      WIDTH   CONDCTNC.   GRADIENT

   1   13    1     1     1    1.0000E+05 -5.9744E+03   1.0597E+05  0.000E+00  0.000E+00  0.000E+00  4.84086E+01  1.472E-01  2.000E+01  2.000E+04 -2.987E-01
   1   13    2     1     2    1.0597E+05 -7.4499E+03   1.1342E+05  0.000E+00  0.000E+00  0.000E+00  4.79370E+01  1.529E-01  2.000E+01  2.000E+04 -3.725E-01
   1   14    3     1     3    1.1342E+05 -2.1465E+03   1.1557E+05  0.000E+00  0.000E+00  0.000E+00  4.74637E+01  1.569E-01  2.000E+01  2.000E+04 -1.073E-01
   1   15    4     1     4    1.1557E+05 -2.1620E+03   1.1773E+05  0.000E+00  0.000E+00  0.000E+00  4.69882E+01  1.587E-01  2.000E+01  2.000E+04 -1.081E-01
   1   16    5     1     5    1.1773E+05 -5.8964E+03   1.2363E+05  0.000E+00  0.000E+00  0.000E+00  4.65142E+01  1.619E-01  2.000E+01  2.000E+04 -2.948E-01
   1   16    6     1     6    1.2363E+05 -3.3110E+03   1.2694E+05  0.000E+00  0.000E+00  0.000E+00  4.60406E+01  1.656E-01  2.000E+01  2.000E+04 -1.655E-01
   1   16    7     1     7    1.2694E+05 -3.3366E+03   1.3028E+05  0.000E+00  0.000E+00  0.000E+00  4.55660E+01  1.682E-01  2.000E+01  2.000E+04 -1.668E-01
   1   16    8     1     8    1.3028E+05 -3.5167E+03   1.3379E+05  0.000E+00  0.000E+00  0.000E+00  4.50914E+01  1.709E-01  2.000E+01  2.000E+04 -1.758E-01
   1   16    9     1     9    1.3379E+05 -3.6745E+03   1.3747E+05  0.000E+00  0.000E+00  0.000E+00  4.46169E+01  1.737E-01  2.000E+01  2.000E+04 -1.837E-01
   1   16   10     1    10    1.3747E+05 -3.7792E+03   1.4125E+05  0.000E+00  0.000E+00  0.000E+00  4.41424E+01  1.765E-01  2.000E+01  2.000E+04 -1.890E-01
   1   16   11     1    11    1.4125E+05 -3.8685E+03   1.4512E+05  0.000E+00  0.000E+00  0.000E+00  4.36681E+01  1.794E-01  2.000E+01  2.000E+04 -1.934E-01
   1   16   12     1    12    1.4512E+05 -6.6519E+03   1.5177E+05  0.000E+00  0.000E+00  0.000E+00  4.31947E+01  1.833E-01  2.000E+01  2.000E+04 -3.326E-01
   1   15   13     1    13    1.5177E+05 -7.1026E+03   1.5887E+05  0.000E+00  0.000E+00  0.000E+00  4.27225E+01  1.884E-01  2.000E+01  2.000E+04 -3.551E-01
   1   14   14     1    14    1.5887E+05 -7.6428E+03   1.6651E+05  0.000E+00  0.000E+00  0.000E+00  4.22505E+01  1.937E-01  2.000E+01  2.000E+04 -3.821E-01
   1   13   15     1    15    1.6651E+05 -7.9991E+03   1.7451E+05  0.000E+00  0.000E+00  0.000E+00  4.17788E+01  1.992E-01  2.000E+01  2.000E+04 -4.000E-01
   1   12   16     1    16    1.7451E+05 -8.5602E+03   1.8307E+05  0.000E+00  0.000E+00  0.000E+00  4.13073E+01  2.050E-01  2.000E+01  2.000E+04 -4.280E-01
   1   12   17     1    17    1.8307E+05 -5.9543E+03   1.8903E+05  0.000E+00  0.000E+00  0.000E+00  4.08349E+01  2.099E-01  2.000E+01  2.000E+04 -2.977E-01
   1   12   18     1    18    1.8903E+05 -5.6432E+03   1.9467E+05  0.000E+00  0.000E+00  0.000E+00  4.03616E+01  2.138E-01  2.000E+01  2.000E+04 -2.822E-01
   1   12   19     1    19    1.9467E+05 -6.6311E+03   2.0130E+05  0.000E+00  0.000E+00  0.000E+00  3.98884E+01  2.179E-01  2.000E+01  2.000E+04 -3.316E-01
   1   13   20     1    20    2.0130E+05 -6.0844E+03   2.0739E+05  0.000E+00  0.000E+00  0.000E+00  3.94153E+01  2.221E-01  2.000E+01  2.000E+04 -3.042E-01
   1   14   21     1    21    2.0739E+05 -5.9783E+03   2.1336E+05  0.000E+00  0.000E+00  0.000E+00  3.89419E+01  2.260E-01  2.000E+01  2.000E+04 -2.989E-01
   1   14   22     1    22    2.1336E+05  3.7963E+03   2.0957E+05  0.000E+00  0.000E+00  0.000E+00  3.84653E+01  2.267E-01  2.000E+01  2.000E+04  1.898E-01
   1    9   30     2     1    5.0000E+04 -4.3726E+03   5.4373E+04  0.000E+00  0.000E+00  0.000E+00  4.02439E+01  1.189E-01  2.000E+01  2.000E+04 -2.186E-01
   1    9   29     2     2    5.4373E+04 -4.6000E+03   5.8973E+04  0.000E+00  0.000E+00  0.000E+00  3.99999E+01  1.249E-01  2.000E+01  2.000E+04 -2.300E-01
   1    9   28     2     3    5.8973E+04 -4.7245E+03   6.3697E+04  0.000E+00  0.000E+00  0.000E+00  3.97560E+01  1.310E-01  2.000E+01  2.000E+04 -2.362E-01
   1    9   27     2     4    6.3697E+04 -6.7685E+03   7.0466E+04  0.000E+00  0.000E+00  0.000E+00  3.95132E+01  1.382E-01  2.000E+01  2.000E+04 -3.384E-01
   1   10   26     2     5    7.0466E+04 -6.1913E+03   7.6657E+04  0.000E+00  0.000E+00  0.000E+00  3.92711E+01  1.461E-01  2.000E+01  2.000E+04 -3.096E-01
   1   11   25     2     6    7.6657E+04 -5.8010E+03   8.2458E+04  0.000E+00  0.000E+00  0.000E+00  3.90281E+01  1.531E-01  2.000E+01  2.000E+04 -2.901E-01
   1   12   24     2     7    8.2458E+04 -5.3608E+03   8.7819E+04  0.000E+00  0.000E+00  0.000E+00  3.87845E+01  1.595E-01  2.000E+01  2.000E+04 -2.680E-01
   1   13   23     2     8    8.7819E+04 -1.5116E+03   8.9330E+04  0.000E+00  0.000E+00  0.000E+00  3.85383E+01  1.633E-01  2.000E+01  2.000E+04 -7.558E-02
   1   14   22     2     9    8.9330E+04  2.6887E+02   8.9062E+04  0.000E+00  0.000E+00  0.000E+00  3.82890E+01  1.640E-01  2.000E+01  2.000E+04  1.344E-02
   1   14   22     3     1    2.9863E+05 -9.7263E+03   3.0836E+05  0.000E+00  0.000E+00  0.000E+00  3.77892E+01  2.337E-01  2.000E+01  2.000E+04 -4.863E-01
   1   15   23     3     2    3.0836E+05 -1.9462E+03   3.1030E+05  0.000E+00  0.000E+00  0.000E+00  3.69030E+01  2.363E-01  2.000E+01  2.000E+04 -9.731E-02
   1   15   24     3     3    3.1030E+05 -1.5213E+03   3.1182E+05  0.000E+00  0.000E+00  0.000E+00  3.60149E+01  2.371E-01  2.000E+01  2.000E+04 -7.606E-02
   1   15   25     3     4    3.1182E+05 -1.5748E+03   3.1340E+05  0.000E+00  0.000E+00  0.000E+00  3.51267E+01  2.378E-01  2.000E+01  2.000E+04 -7.874E-02
   1   15   26     3     5    3.1340E+05 -1.8803E+03   3.1528E+05  0.000E+00  0.000E+00  0.000E+00  3.42386E+01  2.386E-01  2.000E+01  2.000E+04 -9.401E-02
   1   16   27     3     6    3.1528E+05 -2.1600E+03   3.1744E+05  0.000E+00  0.000E+00  0.000E+00  3.33507E+01  2.396E-01  2.000E+01  2.000E+04 -1.080E-01
   1   17   28     3     7    3.1744E+05 -6.5525E+03   3.2399E+05  0.000E+00  0.000E+00  0.000E+00  3.24638E+01  2.415E-01  2.000E+01  2.000E+04 -3.276E-01
   1   18   29     3     8    3.2399E+05 -7.9310E+03   3.3192E+05  0.000E+00  0.000E+00  0.000E+00  3.15781E+01  2.448E-01  2.000E+01  2.000E+04 -3.965E-01
   1   18   30     3     9    3.3192E+05 -7.1378E+03   3.3906E+05  0.000E+00  0.000E+00  0.000E+00  3.06926E+01  2.481E-01  2.000E+01  2.000E+04 -3.569E-01



1
              HEAD IN LAYER   1 AT END OF TIME STEP   1 IN STRESS PERIOD    1
  ---------------------------------------------------------------------------

          1      2      3      4      5      6      7      8      9     10
         11     12     13     14     15     16     17     18     19     20
         21     22     23     24     25     26     27     28     29     30
 .........................................................................
   1  ****** ****** ****** ****** ****** ****** ****** ****** ****** ******
      ****** ****** ****** ****** ****** ****** ****** ****** ****** ******
      ****** ****** ****** ****** ****** ****** ****** ****** ****** ******
   2  ****** ****** ****** ****** ****** ****** ****** ****** ****** ******
      ****** ****** ****** ****** ****** ****** ****** ****** ****** ******
      ****** ****** ****** ****** ****** ****** ****** ****** ****** ******
   3  ****** ****** ****** ****** ****** ****** ****** ****** ****** ******
      ****** ****** ****** ****** ****** ****** ****** ****** ****** ******
      ****** ****** ****** ****** ****** ****** ****** ****** ****** ******
   4  ****** ****** ****** ****** ****** ****** ****** ****** ****** ******
      ****** ****** ****** ****** ****** ****** ****** ****** ****** ******
      ****** ****** ****** ****** ****** ****** ****** ****** ****** ******
   5  ****** ****** ****** ****** ****** ****** ****** ****** ****** ******
      ****** ****** ****** ****** ****** ****** ****** ****** ****** ******
      ****** ****** ****** ****** ****** ****** ****** ****** ****** ******
   6  ****** ****** ****** ****** ****** ****** ****** ****** ****** ******
      ****** ****** ****** ****** ****** ****** ****** ****** ****** ******
      ****** ****** ****** ****** ****** ****** ****** ****** ****** ******
   7  ****** ****** ****** ****** ****** ****** ****** ****** ****** ******
      ****** ****** ****** ****** ****** ****** ****** ****** ****** ******
      ****** ****** ****** ****** ****** ****** ****** ****** ****** ******
   8  ****** ****** ****** ****** ****** ****** ****** ****** ****** ******
      ****** ****** ****** ****** ****** ****** ****** ****** ****** ******
      ****** ****** ****** ****** ****** ****** ****** ****** ****** ******
   9  ****** ****** ****** ****** ****** ****** ****** ****** ****** ******
      ****** ****** ****** ****** ****** ****** ****** ****** ****** ******
      ****** ****** ****** ****** ****** ****** ****** ****** ****** ******
  10  ****** ****** ****** ****** ****** ****** ****** ****** ****** ******
      ****** ****** ****** ****** ****** ****** ****** ****** ****** ******
      ****** ****** ****** ****** ****** ****** ****** ****** ****** ******
  11  ****** ****** ****** ****** ****** ****** ****** ****** ****** ******
      ****** ****** ****** ****** ****** ****** ****** ****** ****** ******
      ****** ****** ****** ****** ****** ****** ****** ****** ****** ******
  12  ****** ****** ****** ****** ****** ****** ****** ****** ****** ******
      ****** ****** ****** ****** ****** ****** ****** ****** ****** ******
      ****** ****** ****** ****** ****** ****** ****** ****** ****** ******
  13  ****** ****** ****** ****** ****** ****** ****** ****** ****** ******
      ****** ****** ****** ****** ****** ****** ****** ****** ****** ******
      ****** ****** ****** ****** ****** ****** ****** ****** ****** ******
  14  ****** ****** ****** ****** ****** ****** ****** ****** ****** ******
      ****** ****** ****** ****** ****** ****** ****** ****** ****** ******
      ****** ****** ****** ****** ****** ****** ****** ****** ****** ******
  15  ****** ****** ****** ****** ****** ****** ****** ****** ****** ******
      ****** ****** ****** ****** ****** ****** ****** ****** ****** ******
      ****** ****** ****** ****** ****** ****** ****** ****** ****** ******
  16  ****** ****** ****** ****** ****** ****** ****** ****** ****** ******
      ****** ****** ****** ****** ****** ****** ****** ****** ****** ******
      ****** ****** ****** ****** ****** ****** ****** ****** ****** ******
  17  ****** ****** ****** ****** ****** ****** ****** ****** ****** ******
      ****** ****** ****** ****** ****** ****** ****** ****** ****** ******
      ****** ****** ****** ****** ****** ****** ****** ****** ****** ******
  18  ****** ****** ****** ****** ****** ****** ****** ****** ****** ******
      ****** ****** ****** ****** ****** ****** ****** ****** ****** ******
      ****** ****** ****** ****** ****** ****** ****** ****** ****** ******
  19  ****** ****** ****** ****** ****** ****** ****** ****** ****** ******
      ****** ****** ****** ****** ****** ****** ****** ****** ****** ******
      ****** ****** ****** ****** ****** ****** ****** ****** ****** ******
  20  ****** ****** ****** ****** ****** ****** ****** ****** ****** ******
      ****** ****** ****** ****** ****** ****** ****** ****** ****** ******
      ****** ****** ****** ****** ****** ****** ****** ****** ****** ******
  21  ****** ****** ****** ****** ****** ****** ****** ****** ****** ******
      ****** ****** ****** ****** ****** ****** ****** ****** ****** ******
      ****** ****** ****** ****** ****** ****** ****** ****** ****** ******
  22  ****** ****** ****** ****** ****** ****** ****** ****** ****** ******
      ****** ****** ****** ****** ****** ****** ****** ****** ****** ******
      ****** ****** ****** ****** ****** ****** ****** ****** ****** ******
  23  ****** ****** ****** ****** ****** ****** ****** ****** ****** ******
      ****** ****** ****** ****** ****** ****** ****** ****** ****** ******
      ****** ****** ****** ****** ****** ****** ****** ****** ****** ******
  24  ****** ****** ****** ****** ****** ****** ****** ****** ****** ******
      ****** ****** ****** ****** ****** ****** ****** ****** ****** ******
      ****** ****** ****** ****** ****** ****** ****** ****** ****** ******
  25  ****** ****** ****** ****** ****** ****** ****** ****** ****** ******
      ****** ****** ****** ****** ****** ****** ****** ****** ****** ******
      ****** ****** ****** ****** ****** ****** ****** ****** ****** ******

 HEAD WILL BE SAVED ON UNIT   51 AT END OF TIME STEP    1, STRESS PERIOD    1
1
  VOLUMETRIC BUDGET FOR ENTIRE MODEL AT END OF TIME STEP    1, STRESS PERIOD   1
  ------------------------------------------------------------------------------

     CUMULATIVE VOLUMES      L**3       RATES FOR THIS TIME STEP      L**3/T
     ------------------                 ------------------------

           IN:                                      IN:
           ---                                      ---
             STORAGE =    18466353.1545               STORAGE =      200721.2299
       CONSTANT HEAD =     1265441.6294         CONSTANT HEAD =       13754.8003
               WELLS =           0.0000                 WELLS =           0.0000
            RECHARGE =     1269600.0000              RECHARGE =       13800.0000
      STREAM LEAKAGE =      373991.0565        STREAM LEAKAGE =        4065.1202

            TOTAL IN =    21375385.8403              TOTAL IN =      232341.1504

          OUT:                                     OUT:
          ----                                     ----
             STORAGE =           0.0000               STORAGE =           0.0000
       CONSTANT HEAD =           0.0000         CONSTANT HEAD =           0.0000
               WELLS =     3607945.7563                 WELLS =       39216.8017
            RECHARGE =           0.0000              RECHARGE =           0.0000
      STREAM LEAKAGE =    17767440.3785        STREAM LEAKAGE =      193124.3519

           TOTAL OUT =    21375386.1347             TOTAL OUT =      232341.1536

            IN - OUT =          -0.2944              IN - OUT =      -3.2004E-03

 PERCENT DISCREPANCY =          -0.00     PERCENT DISCREPANCY =          -0.00






         TIME SUMMARY AT END OF TIME STEP    1 IN STRESS PERIOD    1
                    SECONDS     MINUTES      HOURS       DAYS        YEARS
                    -----------------------------------------------------------
   TIME STEP LENGTH 7.94880E+06 1.32480E+05  2208.0      92.000     0.25188    
 STRESS PERIOD TIME 7.94880E+06 1.32480E+05  2208.0      92.000     0.25188    
         TOTAL TIME 7.94880E+06 1.32480E+05  2208.0      92.000     0.25188    
1
1
                            STRESS PERIOD NO.    2, LENGTH =   91.00000    
                            -----------------------------------------------

                              NUMBER OF TIME STEPS =     1

                               MULTIPLIER FOR DELT =     1.500

                            INITIAL TIME STEP SIZE =   91.00000    

 WELL NO.  LAYER   ROW   COL   STRESS RATE         
 --------------------------------------------------
      1      1      9     21      -9430.    
      2      1      5     25     -0.1289E+05
      3      1     22     18      -7019.    
      4      1     19      6      -9882.    

      4 WELLS

                 RECHARGE =  2.000000E-03

 REUSING STREAM SEGMENT DATA FROM LAST STRESS PERIOD
 
 SOLVING FOR HEAD 


     7 CALLS TO PCG ROUTINE FOR TIME STEP   1 IN STRESS PERIOD    2
    27 TOTAL ITERATIONS

 OUTPUT CONTROL FOR STRESS PERIOD    2   TIME STEP    1
    SAVE BUDGET
    SAVE HEAD FOR ALL LAYERS
    PRINT HEAD FOR ALL LAYERS
 UBDSV2 SAVING "STREAMFLOW OUT  " ON UNIT  50 AT TIME STEP  1, STRESS PERIOD   2



 STREAM LISTING     PERIOD      2   STEP        1

 LAYER ROW COL. STREAM  RCH.  FLOW INTO     FLOW TO   FLOW OUT OF   OVRLND.     DIRECT     STREAM       STREAM     STREAM     STREAM   STREAMBED  STREAMBED
                SEG.NO.  NO.  STRM. RCH.    AQUIFER    STRM. RCH.    RUNOFF     PRECIP       ET          HEAD       DEPTH      WIDTH   CONDCTNC.   GRADIENT

   1   13    1     1     1    1.0000E+05 -3.7584E+03   1.0376E+05  0.000E+00  0.000E+00  0.000E+00  4.84076E+01  1.463E-01  2.000E+01  2.000E+04 -1.879E-01
   1   13    2     1     2    1.0376E+05 -5.0316E+03   1.0879E+05  0.000E+00  0.000E+00  0.000E+00  4.79341E+01  1.500E-01  2.000E+01  2.000E+04 -2.516E-01
   1   14    3     1     3    1.0879E+05 -1.0291E+03   1.0982E+05  0.000E+00  0.000E+00  0.000E+00  4.74594E+01  1.526E-01  2.000E+01  2.000E+04 -5.146E-02
   1   15    4     1     4    1.0982E+05 -9.8003E+02   1.1080E+05  0.000E+00  0.000E+00  0.000E+00  4.69830E+01  1.534E-01  2.000E+01  2.000E+04 -4.900E-02
   1   16    5     1     5    1.1080E+05 -2.4997E+03   1.1330E+05  0.000E+00  0.000E+00  0.000E+00  4.65071E+01  1.549E-01  2.000E+01  2.000E+04 -1.250E-01
   1   16    6     1     6    1.1330E+05 -1.2604E+03   1.1456E+05  0.000E+00  0.000E+00  0.000E+00  4.60314E+01  1.564E-01  2.000E+01  2.000E+04 -6.302E-02
   1   16    7     1     7    1.1456E+05 -1.3877E+03   1.1595E+05  0.000E+00  0.000E+00  0.000E+00  4.55552E+01  1.575E-01  2.000E+01  2.000E+04 -6.938E-02
   1   16    8     1     8    1.1595E+05 -1.6073E+03   1.1755E+05  0.000E+00  0.000E+00  0.000E+00  4.50792E+01  1.587E-01  2.000E+01  2.000E+04 -8.037E-02
   1   16    9     1     9    1.1755E+05 -1.7789E+03   1.1933E+05  0.000E+00  0.000E+00  0.000E+00  4.46033E+01  1.601E-01  2.000E+01  2.000E+04 -8.895E-02
   1   16   10     1    10    1.1933E+05 -1.8782E+03   1.2121E+05  0.000E+00  0.000E+00  0.000E+00  4.41275E+01  1.616E-01  2.000E+01  2.000E+04 -9.391E-02
   1   16   11     1    11    1.2121E+05 -1.9422E+03   1.2315E+05  0.000E+00  0.000E+00  0.000E+00  4.36518E+01  1.631E-01  2.000E+01  2.000E+04 -9.711E-02
   1   16   12     1    12    1.2315E+05 -3.5353E+03   1.2669E+05  0.000E+00  0.000E+00  0.000E+00  4.31767E+01  1.653E-01  2.000E+01  2.000E+04 -1.768E-01
   1   15   13     1    13    1.2669E+05 -3.7237E+03   1.3041E+05  0.000E+00  0.000E+00  0.000E+00  4.27023E+01  1.682E-01  2.000E+01  2.000E+04 -1.862E-01
   1   14   14     1    14    1.3041E+05 -4.1768E+03   1.3459E+05  0.000E+00  0.000E+00  0.000E+00  4.22281E+01  1.713E-01  2.000E+01  2.000E+04 -2.088E-01
   1   13   15     1    15    1.3459E+05 -4.5511E+03   1.3914E+05  0.000E+00  0.000E+00  0.000E+00  4.17542E+01  1.746E-01  2.000E+01  2.000E+04 -2.276E-01
   1   12   16     1    16    1.3914E+05 -5.2715E+03   1.4441E+05  0.000E+00  0.000E+00  0.000E+00  4.12806E+01  1.784E-01  2.000E+01  2.000E+04 -2.636E-01
   1   12   17     1    17    1.4441E+05 -3.3053E+03   1.4772E+05  0.000E+00  0.000E+00  0.000E+00  4.08066E+01  1.816E-01  2.000E+01  2.000E+04 -1.653E-01
   1   12   18     1    18    1.4772E+05 -2.9488E+03   1.5067E+05  0.000E+00  0.000E+00  0.000E+00  4.03316E+01  1.839E-01  2.000E+01  2.000E+04 -1.474E-01
   1   12   19     1    19    1.5067E+05 -3.1647E+03   1.5383E+05  0.000E+00  0.000E+00  0.000E+00  3.98566E+01  1.861E-01  2.000E+01  2.000E+04 -1.582E-01
   1   13   20     1    20    1.5383E+05 -2.7147E+03   1.5655E+05  0.000E+00  0.000E+00  0.000E+00  3.93815E+01  1.883E-01  2.000E+01  2.000E+04 -1.357E-01
   1   14   21     1    21    1.5655E+05 -3.0447E+03   1.5959E+05  0.000E+00  0.000E+00  0.000E+00  3.89063E+01  1.904E-01  2.000E+01  2.000E+04 -1.522E-01
   1   14   22     1    22    1.5959E+05  4.6212E+03   1.5497E+05  0.000E+00  0.000E+00  0.000E+00  3.84285E+01  1.898E-01  2.000E+01  2.000E+04  2.311E-01
   1    9   30     2     1    5.0000E+04 -1.3859E+03   5.1386E+04  0.000E+00  0.000E+00  0.000E+00  4.02418E+01  1.168E-01  2.000E+01  2.000E+04 -6.930E-02
   1    9   29     2     2    5.1386E+04 -1.6084E+03   5.2994E+04  0.000E+00  0.000E+00  0.000E+00  3.99939E+01  1.189E-01  2.000E+01  2.000E+04 -8.042E-02
   1    9   28     2     3    5.2994E+04 -1.7044E+03   5.4699E+04  0.000E+00  0.000E+00  0.000E+00  3.97461E+01  1.211E-01  2.000E+01  2.000E+04 -8.522E-02
   1    9   27     2     4    5.4699E+04 -2.6833E+03   5.7382E+04  0.000E+00  0.000E+00  0.000E+00  3.94991E+01  1.241E-01  2.000E+01  2.000E+04 -1.342E-01
   1   10   26     2     5    5.7382E+04 -2.1520E+03   5.9534E+04  0.000E+00  0.000E+00  0.000E+00  3.92523E+01  1.273E-01  2.000E+01  2.000E+04 -1.076E-01
   1   11   25     2     6    5.9534E+04 -2.0010E+03   6.1535E+04  0.000E+00  0.000E+00  0.000E+00  3.90049E+01  1.299E-01  2.000E+01  2.000E+04 -1.000E-01
   1   12   24     2     7    6.1535E+04 -1.9579E+03   6.3493E+04  0.000E+00  0.000E+00  0.000E+00  3.87575E+01  1.325E-01  2.000E+01  2.000E+04 -9.789E-02
   1   13   23     2     8    6.3493E+04 -4.2378E+02   6.3917E+04  0.000E+00  0.000E+00  0.000E+00  3.85090E+01  1.340E-01  2.000E+01  2.000E+04 -2.119E-02
   1   14   22     2     9    6.3917E+04  1.2219E+03   6.2695E+04  0.000E+00  0.000E+00  0.000E+00  3.82585E+01  1.335E-01  2.000E+01  2.000E+04  6.110E-02
   1   14   22     3     1    2.1766E+05 -8.9613E+03   2.2663E+05  0.000E+00  0.000E+00  0.000E+00  3.77493E+01  1.938E-01  2.000E+01  2.000E+04 -4.481E-01
   1   15   23     3     2    2.2663E+05 -9.7593E+02   2.2760E+05  0.000E+00  0.000E+00  0.000E+00  3.68630E+01  1.964E-01  2.000E+01  2.000E+04 -4.880E-02
   1   15   24     3     3    2.2760E+05 -6.4628E+02   2.2825E+05  0.000E+00  0.000E+00  0.000E+00  3.59746E+01  1.968E-01  2.000E+01  2.000E+04 -3.231E-02
   1   15   25     3     4    2.2825E+05 -6.6008E+02   2.2891E+05  0.000E+00  0.000E+00  0.000E+00  3.50860E+01  1.971E-01  2.000E+01  2.000E+04 -3.300E-02
   1   15   26     3     5    2.2891E+05 -7.6651E+02   2.2967E+05  0.000E+00  0.000E+00  0.000E+00  3.41975E+01  1.975E-01  2.000E+01  2.000E+04 -3.833E-02
   1   16   27     3     6    2.2967E+05 -8.8732E+02   2.3056E+05  0.000E+00  0.000E+00  0.000E+00  3.33090E+01  1.979E-01  2.000E+01  2.000E+04 -4.437E-02
   1   17   28     3     7    2.3056E+05 -3.1974E+03   2.3376E+05  0.000E+00  0.000E+00  0.000E+00  3.24212E+01  1.990E-01  2.000E+01  2.000E+04 -1.599E-01
   1   18   29     3     8    2.3376E+05 -4.9171E+03   2.3868E+05  0.000E+00  0.000E+00  0.000E+00  3.15344E+01  2.010E-01  2.000E+01  2.000E+04 -2.459E-01
   1   18   30     3     9    2.3868E+05 -4.6031E+03   2.4328E+05  0.000E+00  0.000E+00  0.000E+00  3.06479E+01  2.035E-01  2.000E+01  2.000E+04 -2.302E-01



1
              HEAD IN LAYER   1 AT END OF TIME STEP   1 IN STRESS PERIOD    2
  ---------------------------------------------------------------------------

          1      2      3      4      5      6      7      8      9     10
         11     12     13     14     15     16     17     18     19     20
         21     22     23     24     25     26     27     28     29     30
 .........................................................................
   1  ****** ****** ****** ****** ****** ****** ****** ****** ****** ******
      ****** ****** ****** ****** ****** ****** ****** ****** ****** ******
      ****** ****** ****** ****** ****** ****** ****** ****** ****** ******
   2  ****** ****** ****** ****** ****** ****** ****** ****** ****** ******
      ****** ****** ****** ****** ****** ****** ****** ****** ****** ******
      ****** ****** ****** ****** ****** ****** ****** ****** ****** ******
   3  ****** ****** ****** ****** ****** ****** ****** ****** ****** ******
      ****** ****** ****** ****** ****** ****** ****** ****** ****** ******
      ****** ****** ****** ****** ****** ****** ****** ****** ****** ******
   4  ****** ****** ****** ****** ****** ****** ****** ****** ****** ******
      ****** ****** ****** ****** ****** ****** ****** ****** ****** ******
      ****** ****** ****** ****** ****** ****** ****** ****** ****** ******
   5  ****** ****** ****** ****** ****** ****** ****** ****** ****** ******
      ****** ****** ****** ****** ****** ****** ****** ****** ****** ******
      ****** ****** ****** ****** ****** ****** ****** ****** ****** ******
   6  ****** ****** ****** ****** ****** ****** ****** ****** ****** ******
      ****** ****** ****** ****** ****** ****** ****** ****** ****** ******
      ****** ****** ****** ****** ****** ****** ****** ****** ****** ******
   7  ****** ****** ****** ****** ****** ****** ****** ****** ****** ******
      ****** ****** ****** ****** ****** ****** ****** ****** ****** ******
      ****** ****** ****** ****** ****** ****** ****** ****** ****** ******
   8  ****** ****** ****** ****** ****** ****** ****** ****** ****** ******
      ****** ****** ****** ****** ****** ****** ****** ****** ****** ******
      ****** ****** ****** ****** ****** ****** ****** ****** ****** ******
   9  ****** ****** ****** ****** ****** ****** ****** ****** ****** ******
      ****** ****** ****** ****** ****** ****** ****** ****** ****** ******
      ****** ****** ****** ****** ****** ****** ****** ****** ****** ******
  10  ****** ****** ****** ****** ****** ****** ****** ****** ****** ******
      ****** ****** ****** ****** ****** ****** ****** ****** ****** ******
      ****** ****** ****** ****** ****** ****** ****** ****** ****** ******
  11  ****** ****** ****** ****** ****** ****** ****** ****** ****** ******
      ****** ****** ****** ****** ****** ****** ****** ****** ****** ******
      ****** ****** ****** ****** ****** ****** ****** ****** ****** ******
  12  ****** ****** ****** ****** ****** ****** ****** ****** ****** ******
      ****** ****** ****** ****** ****** ****** ****** ****** ****** ******
      ****** ****** ****** ****** ****** ****** ****** ****** ****** ******
  13  ****** ****** ****** ****** ****** ****** ****** ****** ****** ******
      ****** ****** ****** ****** ****** ****** ****** ****** ****** ******
      ****** ****** ****** ****** ****** ****** ****** ****** ****** ******
  14  ****** ****** ****** ****** ****** ****** ****** ****** ****** ******
      ****** ****** ****** ****** ****** ****** ****** ****** ****** ******
      ****** ****** ****** ****** ****** ****** ****** ****** ****** ******
  15  ****** ****** ****** ****** ****** ****** ****** ****** ****** ******
      ****** ****** ****** ****** ****** ****** ****** ****** ****** ******
      ****** ****** ****** ****** ****** ****** ****** ****** ****** ******
  16  ****** ****** ****** ****** ****** ****** ****** ****** ****** ******
      ****** ****** ****** ****** ****** ****** ****** ****** ****** ******
      ****** ****** ****** ****** ****** ****** ****** ****** ****** ******
  17  ****** ****** ****** ****** ****** ****** ****** ****** ****** ******
      ****** ****** ****** ****** ****** ****** ****** ****** ****** ******
      ****** ****** ****** ****** ****** ****** ****** ****** ****** ******
  18  ****** ****** ****** ****** ****** ****** ****** ****** ****** ******
      ****** ****** ****** ****** ****** ****** ****** ****** ****** ******
      ****** ****** ****** ****** ****** ****** ****** ****** ****** ******
  19  ****** ****** ****** ****** ****** ****** ****** ****** ****** ******
      ****** ****** ****** ****** ****** ****** ****** ****** ****** ******
      ****** ****** ****** ****** ****** ****** ****** ****** ****** ******
  20  ****** ****** ****** ****** ****** ****** ****** ****** ****** ******
      ****** ****** ****** ****** ****** ****** ****** ****** ****** ******
      ****** ****** ****** ****** ****** ****** ****** ****** ****** ******
  21  ****** ****** ****** ****** ****** ****** ****** ****** ****** ******
      ****** ****** ****** ****** ****** ****** ****** ****** ****** ******
      ****** ****** ****** ****** ****** ****** ****** ****** ****** ******
  22  ****** ****** ****** ****** ****** ****** ****** ****** ****** ******
      ****** ****** ****** ****** ****** ****** ****** ****** ****** ******
      ****** ****** ****** ****** ****** ****** ****** ****** ****** ******
  23  ****** ****** ****** ****** ****** ****** ****** ****** ****** ******
      ****** ****** ****** ****** ****** ****** ****** ****** ****** ******
      ****** ****** ****** ****** ****** ****** ****** ****** ****** ******
  24  ****** ****** ****** ****** ****** ****** ****** ****** ****** ******
      ****** ****** ****** ****** ****** ****** ****** ****** ****** ******
      ****** ****** ****** ****** ****** ****** ****** ****** ****** ******
  25  ****** ****** ****** ****** ****** ****** ****** ****** ****** ******
      ****** ****** ****** ****** ****** ****** ****** ****** ****** ******
      ****** ****** ****** ****** ****** ****** ****** ****** ****** ******

 HEAD WILL BE SAVED ON UNIT   51 AT END OF TIME STEP    1, STRESS PERIOD    2
1
  VOLUMETRIC BUDGET FOR ENTIRE MODEL AT END OF TIME STEP    1, STRESS PERIOD   2
  ------------------------------------------------------------------------------

     CUMULATIVE VOLUMES      L**3       RATES FOR THIS TIME STEP      L**3/T
     ------------------                 ------------------------

           IN:                                      IN:
           ---                                      ---
             STORAGE =    23753821.7854               STORAGE =       58104.0509
       CONSTANT HEAD =     3011870.9147         CONSTANT HEAD =       19191.5306
               WELLS =           0.0000                 WELLS =           0.0000
            RECHARGE =     6292800.0000              RECHARGE =       55200.0000
      STREAM LEAKAGE =      905715.5774        STREAM LEAKAGE =        5843.1266

            TOTAL IN =    33964208.2776              TOTAL IN =      138338.7081

          OUT:                                     OUT:
          ----                                     ----
             STORAGE =           0.0000               STORAGE =           0.0000
       CONSTANT HEAD =           0.0000         CONSTANT HEAD =           0.0000
               WELLS =     7176674.7108                 WELLS =       39216.8017
            RECHARGE =           0.0000              RECHARGE =           0.0000
      STREAM LEAKAGE =    26787534.8856        STREAM LEAKAGE =       99121.9177

           TOTAL OUT =    33964209.5965             TOTAL OUT =      138338.7194

            IN - OUT =          -1.3189              IN - OUT =      -1.1258E-02

 PERCENT DISCREPANCY =          -0.00     PERCENT DISCREPANCY =          -0.00






         TIME SUMMARY AT END OF TIME STEP    1 IN STRESS PERIOD    2
                    SECONDS     MINUTES      HOURS       DAYS        YEARS
                    -----------------------------------------------------------
   TIME STEP LENGTH 7.86240E+06 1.31040E+05  2184.0      91.000     0.24914    
 STRESS PERIOD TIME 7.86240E+06 1.31040E+05  2184.0      91.000     0.24914    
         TOTAL TIME 1.58112E+07 2.63520E+05  4392.0      183.00     0.50103    
1
1
                            STRESS PERIOD NO.    3, LENGTH =   91.00000    
                            -----------------------------------------------

                              NUMBER OF TIME STEPS =     1

                               MULTIPLIER FOR DELT =     1.500

                            INITIAL TIME STEP SIZE =   91.00000    

 WELL NO.  LAYER   ROW   COL   STRESS RATE         
 --------------------------------------------------
      1      1      9     21      -9430.    
      2      1      5     25     -0.1289E+05
      3      1     22     18      -7019.    
      4      1     19      6      -9882.    

      4 WELLS

                 RECHARGE =   0.00000    

 REUSING STREAM SEGMENT DATA FROM LAST STRESS PERIOD
 
 SOLVING FOR HEAD 


     7 CALLS TO PCG ROUTINE FOR TIME STEP   1 IN STRESS PERIOD    3
    27 TOTAL ITERATIONS

 OUTPUT CONTROL FOR STRESS PERIOD    3   TIME STEP    1
    SAVE BUDGET
    SAVE HEAD FOR ALL LAYERS
    PRINT HEAD FOR ALL LAYERS
 UBDSV2 SAVING "STREAMFLOW OUT  " ON UNIT  50 AT TIME STEP  1, STRESS PERIOD   3



 STREAM LISTING     PERIOD      3   STEP        1

 LAYER ROW COL. STREAM  RCH.  FLOW INTO     FLOW TO   FLOW OUT OF   OVRLND.     DIRECT     STREAM       STREAM     STREAM     STREAM   STREAMBED  STREAMBED
                SEG.NO.  NO.  STRM. RCH.    AQUIFER    STRM. RCH.    RUNOFF     PRECIP       ET          HEAD       DEPTH      WIDTH   CONDCTNC.   GRADIENT

   1   13    1     1     1    1.0000E+05 -2.4588E+03   1.0246E+05  0.000E+00  0.000E+00  0.000E+00  4.84071E+01  1.457E-01  2.000E+01  2.000E+04 -1.229E-01
   1   13    2     1     2    1.0246E+05 -3.5814E+03   1.0604E+05  0.000E+00  0.000E+00  0.000E+00  4.79324E+01  1.483E-01  2.000E+01  2.000E+04 -1.791E-01
   1   14    3     1     3    1.0604E+05 -5.5094E+02   1.0659E+05  0.000E+00  0.000E+00  0.000E+00  4.74569E+01  1.501E-01  2.000E+01  2.000E+04 -2.755E-02
   1   15    4     1     4    1.0659E+05 -4.4898E+02   1.0704E+05  0.000E+00  0.000E+00  0.000E+00  4.69800E+01  1.505E-01  2.000E+01  2.000E+04 -2.245E-02
   1   16    5     1     5    1.0704E+05 -5.0830E+02   1.0755E+05  0.000E+00  0.000E+00  0.000E+00  4.65032E+01  1.509E-01  2.000E+01  2.000E+04 -2.542E-02
   1   16    6     1     6    1.0755E+05 -1.6179E+02   1.0771E+05  0.000E+00  0.000E+00  0.000E+00  4.60262E+01  1.512E-01  2.000E+01  2.000E+04 -8.089E-03
   1   16    7     1     7    1.0771E+05 -3.5825E+02   1.0807E+05  0.000E+00  0.000E+00  0.000E+00  4.55491E+01  1.514E-01  2.000E+01  2.000E+04 -1.791E-02
   1   16    8     1     8    1.0807E+05 -6.0191E+02   1.0867E+05  0.000E+00  0.000E+00  0.000E+00  4.50723E+01  1.518E-01  2.000E+01  2.000E+04 -3.010E-02
   1   16    9     1     9    1.0867E+05 -7.8189E+02   1.0945E+05  0.000E+00  0.000E+00  0.000E+00  4.45956E+01  1.524E-01  2.000E+01  2.000E+04 -3.909E-02
   1   16   10     1    10    1.0945E+05 -8.8315E+02   1.1034E+05  0.000E+00  0.000E+00  0.000E+00  4.41190E+01  1.531E-01  2.000E+01  2.000E+04 -4.416E-02
   1   16   11     1    11    1.1034E+05 -9.3864E+02   1.1127E+05  0.000E+00  0.000E+00  0.000E+00  4.36425E+01  1.538E-01  2.000E+01  2.000E+04 -4.693E-02
   1   16   12     1    12    1.1127E+05 -1.7979E+03   1.1307E+05  0.000E+00  0.000E+00  0.000E+00  4.31663E+01  1.550E-01  2.000E+01  2.000E+04 -8.989E-02
   1   15   13     1    13    1.1307E+05 -1.9857E+03   1.1506E+05  0.000E+00  0.000E+00  0.000E+00  4.26906E+01  1.565E-01  2.000E+01  2.000E+04 -9.929E-02
   1   14   14     1    14    1.1506E+05 -2.4044E+03   1.1746E+05  0.000E+00  0.000E+00  0.000E+00  4.22152E+01  1.583E-01  2.000E+01  2.000E+04 -1.202E-01
   1   13   15     1    15    1.1746E+05 -2.7784E+03   1.2024E+05  0.000E+00  0.000E+00  0.000E+00  4.17400E+01  1.604E-01  2.000E+01  2.000E+04 -1.389E-01
   1   12   16     1    16    1.2024E+05 -3.4228E+03   1.2366E+05  0.000E+00  0.000E+00  0.000E+00  4.12652E+01  1.629E-01  2.000E+01  2.000E+04 -1.711E-01
   1   12   17     1    17    1.2366E+05 -1.9504E+03   1.2561E+05  0.000E+00  0.000E+00  0.000E+00  4.07901E+01  1.651E-01  2.000E+01  2.000E+04 -9.752E-02
   1   12   18     1    18    1.2561E+05 -1.6015E+03   1.2722E+05  0.000E+00  0.000E+00  0.000E+00  4.03142E+01  1.665E-01  2.000E+01  2.000E+04 -8.008E-02
   1   12   19     1    19    1.2722E+05 -1.4463E+03   1.2866E+05  0.000E+00  0.000E+00  0.000E+00  3.98382E+01  1.677E-01  2.000E+01  2.000E+04 -7.231E-02
   1   13   20     1    20    1.2866E+05 -1.1552E+03   1.2982E+05  0.000E+00  0.000E+00  0.000E+00  3.93619E+01  1.687E-01  2.000E+01  2.000E+04 -5.776E-02
   1   14   21     1    21    1.2982E+05 -1.4693E+03   1.3129E+05  0.000E+00  0.000E+00  0.000E+00  3.88857E+01  1.697E-01  2.000E+01  2.000E+04 -7.347E-02
   1   14   22     1    22    1.3129E+05  5.0060E+03   1.2628E+05  0.000E+00  0.000E+00  0.000E+00  3.84070E+01  1.684E-01  2.000E+01  2.000E+04  2.503E-01
   1    9   30     2     1    5.0000E+04 -6.7502E+01   5.0068E+04  0.000E+00  0.000E+00  0.000E+00  4.02409E+01  1.159E-01  2.000E+01  2.000E+04 -3.375E-03
   1    9   29     2     2    5.0068E+04 -2.8668E+02   5.0354E+04  0.000E+00  0.000E+00  0.000E+00  3.99912E+01  1.162E-01  2.000E+01  2.000E+04 -1.433E-02
   1    9   28     2     3    5.0354E+04 -3.5596E+02   5.0710E+04  0.000E+00  0.000E+00  0.000E+00  3.97416E+01  1.166E-01  2.000E+01  2.000E+04 -1.780E-02
   1    9   27     2     4    5.0710E+04 -6.9689E+02   5.1407E+04  0.000E+00  0.000E+00  0.000E+00  3.94923E+01  1.173E-01  2.000E+01  2.000E+04 -3.484E-02
   1   10   26     2     5    5.1407E+04 -3.5883E+02   5.1766E+04  0.000E+00  0.000E+00  0.000E+00  3.92431E+01  1.181E-01  2.000E+01  2.000E+04 -1.794E-02
   1   11   25     2     6    5.1766E+04 -3.5344E+02   5.2119E+04  0.000E+00  0.000E+00  0.000E+00  3.89935E+01  1.185E-01  2.000E+01  2.000E+04 -1.767E-02
   1   12   24     2     7    5.2119E+04 -4.8913E+02   5.2608E+04  0.000E+00  0.000E+00  0.000E+00  3.87441E+01  1.191E-01  2.000E+01  2.000E+04 -2.446E-02
   1   13   23     2     8    5.2608E+04 -7.1650E+01   5.2680E+04  0.000E+00  0.000E+00  0.000E+00  3.84945E+01  1.195E-01  2.000E+01  2.000E+04 -3.582E-03
   1   14   22     2     9    5.2680E+04  1.7334E+03   5.0947E+04  0.000E+00  0.000E+00  0.000E+00  3.82434E+01  1.184E-01  2.000E+01  2.000E+04  8.667E-02
   1   14   22     3     1    1.7723E+05 -8.5897E+03   1.8582E+05  0.000E+00  0.000E+00  0.000E+00  3.77272E+01  1.717E-01  2.000E+01  2.000E+04 -4.295E-01
   1   15   23     3     2    1.8582E+05 -5.6725E+02   1.8638E+05  0.000E+00  0.000E+00  0.000E+00  3.68409E+01  1.742E-01  2.000E+01  2.000E+04 -2.836E-02
   1   15   24     3     3    1.8638E+05 -3.1797E+02   1.8670E+05  0.000E+00  0.000E+00  0.000E+00  3.59523E+01  1.745E-01  2.000E+01  2.000E+04 -1.590E-02
   1   15   25     3     4    1.8670E+05 -3.1703E+02   1.8702E+05  0.000E+00  0.000E+00  0.000E+00  3.50636E+01  1.747E-01  2.000E+01  2.000E+04 -1.585E-02
   1   15   26     3     5    1.8702E+05 -3.6030E+02   1.8738E+05  0.000E+00  0.000E+00  0.000E+00  3.41749E+01  1.749E-01  2.000E+01  2.000E+04 -1.801E-02
   1   16   27     3     6    1.8738E+05 -4.1732E+02   1.8780E+05  0.000E+00  0.000E+00  0.000E+00  3.32862E+01  1.751E-01  2.000E+01  2.000E+04 -2.087E-02
   1   17   28     3     7    1.8780E+05 -1.7644E+03   1.8956E+05  0.000E+00  0.000E+00  0.000E+00  3.23979E+01  1.757E-01  2.000E+01  2.000E+04 -8.822E-02
   1   18   29     3     8    1.8956E+05 -3.3522E+03   1.9291E+05  0.000E+00  0.000E+00  0.000E+00  3.15104E+01  1.771E-01  2.000E+01  2.000E+04 -1.676E-01
   1   18   30     3     9    1.9291E+05 -3.4379E+03   1.9635E+05  0.000E+00  0.000E+00  0.000E+00  3.06234E+01  1.790E-01  2.000E+01  2.000E+04 -1.719E-01



1
              HEAD IN LAYER   1 AT END OF TIME STEP   1 IN STRESS PERIOD    3
  ---------------------------------------------------------------------------

          1      2      3      4      5      6      7      8      9     10
         11     12     13     14     15     16     17     18     19     20
         21     22     23     24     25     26     27     28     29     30
 .........................................................................
   1  ****** ****** ****** ****** ****** ****** ****** ****** ****** ******
      ****** ****** ****** ****** ****** ****** ****** ****** ****** ******
      ****** ****** ****** ****** ****** ****** ****** ****** ****** ******
   2  ****** ****** ****** ****** ****** ****** ****** ****** ****** ******
      ****** ****** ****** ****** ****** ****** ****** ****** ****** ******
      ****** ****** ****** ****** ****** ****** ****** ****** ****** ******
   3  ****** ****** ****** ****** ****** ****** ****** ****** ****** ******
      ****** ****** ****** ****** ****** ****** ****** ****** ****** ******
      ****** ****** ****** ****** ****** ****** ****** ****** ****** ******
   4  ****** ****** ****** ****** ****** ****** ****** ****** ****** ******
      ****** ****** ****** ****** ****** ****** ****** ****** ****** ******
      ****** ****** ****** ****** ****** ****** ****** ****** ****** ******
   5  ****** ****** ****** ****** ****** ****** ****** ****** ****** ******
      ****** ****** ****** ****** ****** ****** ****** ****** ****** ******
      ****** ****** ****** ****** ****** ****** ****** ****** ****** ******
   6  ****** ****** ****** ****** ****** ****** ****** ****** ****** ******
      ****** ****** ****** ****** ****** ****** ****** ****** ****** ******
      ****** ****** ****** ****** ****** ****** ****** ****** ****** ******
   7  ****** ****** ****** ****** ****** ****** ****** ****** ****** ******
      ****** ****** ****** ****** ****** ****** ****** ****** ****** ******
      ****** ****** ****** ****** ****** ****** ****** ****** ****** ******
   8  ****** ****** ****** ****** ****** ****** ****** ****** ****** ******
      ****** ****** ****** ****** ****** ****** ****** ****** ****** ******
      ****** ****** ****** ****** ****** ****** ****** ****** ****** ******
   9  ****** ****** ****** ****** ****** ****** ****** ****** ****** ******
      ****** ****** ****** ****** ****** ****** ****** ****** ****** ******
      ****** ****** ****** ****** ****** ****** ****** ****** ****** ******
  10  ****** ****** ****** ****** ****** ****** ****** ****** ****** ******
      ****** ****** ****** ****** ****** ****** ****** ****** ****** ******
      ****** ****** ****** ****** ****** ****** ****** ****** ****** ******
  11  ****** ****** ****** ****** ****** ****** ****** ****** ****** ******
      ****** ****** ****** ****** ****** ****** ****** ****** ****** ******
      ****** ****** ****** ****** ****** ****** ****** ****** ****** ******
  12  ****** ****** ****** ****** ****** ****** ****** ****** ****** ******
      ****** ****** ****** ****** ****** ****** ****** ****** ****** ******
      ****** ****** ****** ****** ****** ****** ****** ****** ****** ******
  13  ****** ****** ****** ****** ****** ****** ****** ****** ****** ******
      ****** ****** ****** ****** ****** ****** ****** ****** ****** ******
      ****** ****** ****** ****** ****** ****** ****** ****** ****** ******
  14  ****** ****** ****** ****** ****** ****** ****** ****** ****** ******
      ****** ****** ****** ****** ****** ****** ****** ****** ****** ******
      ****** ****** ****** ****** ****** ****** ****** ****** ****** ******
  15  ****** ****** ****** ****** ****** ****** ****** ****** ****** ******
      ****** ****** ****** ****** ****** ****** ****** ****** ****** ******
      ****** ****** ****** ****** ****** ****** ****** ****** ****** ******
  16  ****** ****** ****** ****** ****** ****** ****** ****** ****** ******
      ****** ****** ****** ****** ****** ****** ****** ****** ****** ******
      ****** ****** ****** ****** ****** ****** ****** ****** ****** ******
  17  ****** ****** ****** ****** ****** ****** ****** ****** ****** ******
      ****** ****** ****** ****** ****** ****** ****** ****** ****** ******
      ****** ****** ****** ****** ****** ****** ****** ****** ****** ******
  18  ****** ****** ****** ****** ****** ****** ****** ****** ****** ******
      ****** ****** ****** ****** ****** ****** ****** ****** ****** ******
      ****** ****** ****** ****** ****** ****** ****** ****** ****** ******
  19  ****** ****** ****** ****** ****** ****** ****** ****** ****** ******
      ****** ****** ****** ****** ****** ****** ****** ****** ****** ******
      ****** ****** ****** ****** ****** ****** ****** ****** ****** ******
  20  ****** ****** ****** ****** ****** ****** ****** ****** ****** ******
      ****** ****** ****** ****** ****** ****** ****** ****** ****** ******
      ****** ****** ****** ****** ****** ****** ****** ****** ****** ******
  21  ****** ****** ****** ****** ****** ****** ****** ****** ****** ******
      ****** ****** ****** ****** ****** ****** ****** ****** ****** ******
      ****** ****** ****** ****** ****** ****** ****** ****** ****** ******
  22  ****** ****** ****** ****** ****** ****** ****** ****** ****** ******
      ****** ****** ****** ****** ****** ****** ****** ****** ****** ******
      ****** ****** ****** ****** ****** ****** ****** ****** ****** ******
  23  ****** ****** ****** ****** ****** ****** ****** ****** ****** ******
      ****** ****** ****** ****** ****** ****** ****** ****** ****** ******
      ****** ****** ****** ****** ****** ****** ****** ****** ****** ******
  24  ****** ****** ****** ****** ****** ****** ****** ****** ****** ******
      ****** ****** ****** ****** ****** ****** ****** ****** ****** ******
      ****** ****** ****** ****** ****** ****** ****** ****** ****** ******
  25  ****** ****** ****** ****** ****** ****** ****** ****** ****** ******
      ****** ****** ****** ****** ****** ****** ****** ****** ****** ******
      ****** ****** ****** ****** ****** ****** ****** ****** ****** ******

 HEAD WILL BE SAVED ON UNIT   51 AT END OF TIME STEP    1, STRESS PERIOD    3
1
  VOLUMETRIC BUDGET FOR ENTIRE MODEL AT END OF TIME STEP    1, STRESS PERIOD   3
  ------------------------------------------------------------------------------

     CUMULATIVE VOLUMES      L**3       RATES FOR THIS TIME STEP      L**3/T
     ------------------                 ------------------------

           IN:                                      IN:
           ---                                      ---
             STORAGE =    28967129.9516               STORAGE =       57289.1007
       CONSTANT HEAD =     5585200.2281         CONSTANT HEAD =       28278.3441
               WELLS =           0.0000                 WELLS =           0.0000
            RECHARGE =     6292800.0000              RECHARGE =           0.0000
      STREAM LEAKAGE =     1519004.6433        STREAM LEAKAGE =        6739.4403

            TOTAL IN =    42364134.8231              TOTAL IN =       92306.8851

          OUT:                                     OUT:
          ----                                     ----
             STORAGE =           0.0000               STORAGE =           0.0000
       CONSTANT HEAD =           0.0000         CONSTANT HEAD =           0.0000
               WELLS =    10745403.6654                 WELLS =       39216.8017
            RECHARGE =           0.0000              RECHARGE =           0.0000
      STREAM LEAKAGE =    31618733.2301        STREAM LEAKAGE =       53090.0917

           TOTAL OUT =    42364136.8955             TOTAL OUT =       92306.8934

            IN - OUT =          -2.0724              IN - OUT =      -8.2798E-03

 PERCENT DISCREPANCY =          -0.00     PERCENT DISCREPANCY =          -0.00






         TIME SUMMARY AT END OF TIME STEP    1 IN STRESS PERIOD    3
                    SECONDS     MINUTES      HOURS       DAYS        YEARS
                    -----------------------------------------------------------
   TIME STEP LENGTH 7.86240E+06 1.31040E+05  2184.0      91.000     0.24914    
 STRESS PERIOD TIME 7.86240E+06 1.31040E+05  2184.0      91.000     0.24914    
         TOTAL TIME 2.36736E+07 3.94560E+05  6576.0      274.00     0.75017    
1
1
                            STRESS PERIOD NO.    4, LENGTH =   91.00000    
                            -----------------------------------------------

                              NUMBER OF TIME STEPS =     1

                               MULTIPLIER FOR DELT =     1.500

                            INITIAL TIME STEP SIZE =   91.00000    

 WELL NO.  LAYER   ROW   COL   STRESS RATE         
 --------------------------------------------------
      1      1      9     21      -9430.    
      2      1      5     25     -0.1289E+05
      3      1     22     18      -7019.    
      4      1     19      6      -9882.    

      4 WELLS

                 RECHARGE =  1.000000E-03

 REUSING STREAM SEGMENT DATA FROM LAST STRESS PERIOD
 
 SOLVING FOR HEAD 


     6 CALLS TO PCG ROUTINE FOR TIME STEP   1 IN STRESS PERIOD    4
    23 TOTAL ITERATIONS

 OUTPUT CONTROL FOR STRESS PERIOD    4   TIME STEP    1
    SAVE BUDGET
    SAVE HEAD FOR ALL LAYERS
    PRINT HEAD FOR ALL LAYERS
 UBDSV2 SAVING "STREAMFLOW OUT  " ON UNIT  50 AT TIME STEP  1, STRESS PERIOD   4



 STREAM LISTING     PERIOD      4   STEP        1

 LAYER ROW COL. STREAM  RCH.  FLOW INTO     FLOW TO   FLOW OUT OF   OVRLND.     DIRECT     STREAM       STREAM     STREAM     STREAM   STREAMBED  STREAMBED
                SEG.NO.  NO.  STRM. RCH.    AQUIFER    STRM. RCH.    RUNOFF     PRECIP       ET          HEAD       DEPTH      WIDTH   CONDCTNC.   GRADIENT

   1   13    1     1     1    1.0000E+05 -2.2005E+03   1.0220E+05  0.000E+00  0.000E+00  0.000E+00  4.84070E+01  1.456E-01  2.000E+01  2.000E+04 -1.100E-01
   1   13    2     1     2    1.0220E+05 -3.2866E+03   1.0549E+05  0.000E+00  0.000E+00  0.000E+00  4.79321E+01  1.480E-01  2.000E+01  2.000E+04 -1.643E-01
   1   14    3     1     3    1.0549E+05 -5.1436E+02   1.0600E+05  0.000E+00  0.000E+00  0.000E+00  4.74564E+01  1.496E-01  2.000E+01  2.000E+04 -2.572E-02
   1   15    4     1     4    1.0600E+05 -3.9863E+02   1.0640E+05  0.000E+00  0.000E+00  0.000E+00  4.69795E+01  1.500E-01  2.000E+01  2.000E+04 -1.993E-02
   1   16    5     1     5    1.0640E+05 -1.1635E+02   1.0652E+05  0.000E+00  0.000E+00  0.000E+00  4.65025E+01  1.502E-01  2.000E+01  2.000E+04 -5.817E-03
   1   16    6     1     6    1.0652E+05  2.9053E+01   1.0649E+05  0.000E+00  0.000E+00  0.000E+00  4.60252E+01  1.502E-01  2.000E+01  2.000E+04  1.453E-03
   1   16    7     1     7    1.0649E+05 -1.8392E+02   1.0667E+05  0.000E+00  0.000E+00  0.000E+00  4.55480E+01  1.503E-01  2.000E+01  2.000E+04 -9.196E-03
   1   16    8     1     8    1.0667E+05 -4.3434E+02   1.0711E+05  0.000E+00  0.000E+00  0.000E+00  4.50710E+01  1.506E-01  2.000E+01  2.000E+04 -2.172E-02
   1   16    9     1     9    1.0711E+05 -6.1852E+02   1.0772E+05  0.000E+00  0.000E+00  0.000E+00  4.45942E+01  1.510E-01  2.000E+01  2.000E+04 -3.093E-02
   1   16   10     1    10    1.0772E+05 -7.2358E+02   1.0845E+05  0.000E+00  0.000E+00  0.000E+00  4.41175E+01  1.516E-01  2.000E+01  2.000E+04 -3.618E-02
   1   16   11     1    11    1.0845E+05 -7.7766E+02   1.0923E+05  0.000E+00  0.000E+00  0.000E+00  4.36408E+01  1.522E-01  2.000E+01  2.000E+04 -3.888E-02
   1   16   12     1    12    1.0923E+05 -1.4750E+03   1.1070E+05  0.000E+00  0.000E+00  0.000E+00  4.31645E+01  1.531E-01  2.000E+01  2.000E+04 -7.375E-02
   1   15   13     1    13    1.1070E+05 -1.6993E+03   1.1240E+05  0.000E+00  0.000E+00  0.000E+00  4.26885E+01  1.545E-01  2.000E+01  2.000E+04 -8.497E-02
   1   14   14     1    14    1.1240E+05 -2.1013E+03   1.1450E+05  0.000E+00  0.000E+00  0.000E+00  4.22128E+01  1.560E-01  2.000E+01  2.000E+04 -1.051E-01
   1   13   15     1    15    1.1450E+05 -2.4521E+03   1.1695E+05  0.000E+00  0.000E+00  0.000E+00  4.17374E+01  1.579E-01  2.000E+01  2.000E+04 -1.226E-01
   1   12   16     1    16    1.1695E+05 -2.9943E+03   1.1995E+05  0.000E+00  0.000E+00  0.000E+00  4.12624E+01  1.601E-01  2.000E+01  2.000E+04 -1.497E-01
   1   12   17     1    17    1.1995E+05 -1.6830E+03   1.2163E+05  0.000E+00  0.000E+00  0.000E+00  4.07870E+01  1.620E-01  2.000E+01  2.000E+04 -8.415E-02
   1   12   18     1    18    1.2163E+05 -1.3471E+03   1.2298E+05  0.000E+00  0.000E+00  0.000E+00  4.03110E+01  1.632E-01  2.000E+01  2.000E+04 -6.735E-02
   1   12   19     1    19    1.2298E+05 -1.1216E+03   1.2410E+05  0.000E+00  0.000E+00  0.000E+00  3.98347E+01  1.642E-01  2.000E+01  2.000E+04 -5.608E-02
   1   13   20     1    20    1.2410E+05 -9.3816E+02   1.2504E+05  0.000E+00  0.000E+00  0.000E+00  3.93582E+01  1.650E-01  2.000E+01  2.000E+04 -4.691E-02
   1   14   21     1    21    1.2504E+05 -1.1931E+03   1.2623E+05  0.000E+00  0.000E+00  0.000E+00  3.88818E+01  1.659E-01  2.000E+01  2.000E+04 -5.965E-02
   1   14   22     1    22    1.2623E+05  5.0526E+03   1.2118E+05  0.000E+00  0.000E+00  0.000E+00  3.84030E+01  1.643E-01  2.000E+01  2.000E+04  2.526E-01
   1    9   30     2     1    5.0000E+04  7.1050E+01   4.9929E+04  0.000E+00  0.000E+00  0.000E+00  4.02408E+01  1.158E-01  2.000E+01  2.000E+04  3.552E-03
   1    9   29     2     2    4.9929E+04 -1.3941E+02   5.0068E+04  0.000E+00  0.000E+00  0.000E+00  3.99909E+01  1.159E-01  2.000E+01  2.000E+04 -6.970E-03
   1    9   28     2     3    5.0068E+04 -1.8349E+02   5.0252E+04  0.000E+00  0.000E+00  0.000E+00  3.97411E+01  1.161E-01  2.000E+01  2.000E+04 -9.175E-03
   1    9   27     2     4    5.0252E+04 -3.3154E+02   5.0583E+04  0.000E+00  0.000E+00  0.000E+00  3.94914E+01  1.164E-01  2.000E+01  2.000E+04 -1.658E-02
   1   10   26     2     5    5.0583E+04 -1.3645E+02   5.0720E+04  0.000E+00  0.000E+00  0.000E+00  3.92418E+01  1.168E-01  2.000E+01  2.000E+04 -6.822E-03
   1   11   25     2     6    5.0720E+04 -1.8500E+02   5.0905E+04  0.000E+00  0.000E+00  0.000E+00  3.89920E+01  1.170E-01  2.000E+01  2.000E+04 -9.250E-03
   1   12   24     2     7    5.0905E+04 -3.4503E+02   5.1250E+04  0.000E+00  0.000E+00  0.000E+00  3.87424E+01  1.174E-01  2.000E+01  2.000E+04 -1.725E-02
   1   13   23     2     8    5.1250E+04 -9.0597E+01   5.1340E+04  0.000E+00  0.000E+00  0.000E+00  3.84927E+01  1.177E-01  2.000E+01  2.000E+04 -4.530E-03
   1   14   22     2     9    5.1340E+04  1.8223E+03   4.9518E+04  0.000E+00  0.000E+00  0.000E+00  3.82415E+01  1.165E-01  2.000E+01  2.000E+04  9.111E-02
   1   14   22     3     1    1.7070E+05 -8.5377E+03   1.7923E+05  0.000E+00  0.000E+00  0.000E+00  3.77235E+01  1.679E-01  2.000E+01  2.000E+04 -4.269E-01
   1   15   23     3     2    1.7923E+05 -5.3537E+02   1.7977E+05  0.000E+00  0.000E+00  0.000E+00  3.68372E+01  1.705E-01  2.000E+01  2.000E+04 -2.677E-02
   1   15   24     3     3    1.7977E+05 -3.1396E+02   1.8008E+05  0.000E+00  0.000E+00  0.000E+00  3.59485E+01  1.707E-01  2.000E+01  2.000E+04 -1.570E-02
   1   15   25     3     4    1.8008E+05 -3.1376E+02   1.8040E+05  0.000E+00  0.000E+00  0.000E+00  3.50598E+01  1.709E-01  2.000E+01  2.000E+04 -1.569E-02
   1   15   26     3     5    1.8040E+05 -3.6784E+02   1.8076E+05  0.000E+00  0.000E+00  0.000E+00  3.41711E+01  1.711E-01  2.000E+01  2.000E+04 -1.839E-02
   1   16   27     3     6    1.8076E+05 -4.1482E+02   1.8118E+05  0.000E+00  0.000E+00  0.000E+00  3.32825E+01  1.713E-01  2.000E+01  2.000E+04 -2.074E-02
   1   17   28     3     7    1.8118E+05 -1.6889E+03   1.8287E+05  0.000E+00  0.000E+00  0.000E+00  3.23942E+01  1.719E-01  2.000E+01  2.000E+04 -8.444E-02
   1   18   29     3     8    1.8287E+05 -3.1083E+03   1.8598E+05  0.000E+00  0.000E+00  0.000E+00  3.15066E+01  1.733E-01  2.000E+01  2.000E+04 -1.554E-01
   1   18   30     3     9    1.8598E+05 -3.3140E+03   1.8929E+05  0.000E+00  0.000E+00  0.000E+00  3.06195E+01  1.751E-01  2.000E+01  2.000E+04 -1.657E-01



1
              HEAD IN LAYER   1 AT END OF TIME STEP   1 IN STRESS PERIOD    4
  ---------------------------------------------------------------------------

          1      2      3      4      5      6      7      8      9     10
         11     12     13     14     15     16     17     18     19     20
         21     22     23     24     25     26     27     28     29     30
 .........................................................................
   1  ****** ****** ****** ****** ****** ****** ****** ****** ****** ******
      ****** ****** ****** ****** ****** ****** ****** ****** ****** ******
      ****** ****** ****** ****** ****** ****** ****** ****** ****** ******
   2  ****** ****** ****** ****** ****** ****** ****** ****** ****** ******
      ****** ****** ****** ****** ****** ****** ****** ****** ****** ******
      ****** ****** ****** ****** ****** ****** ****** ****** ****** ******
   3  ****** ****** ****** ****** ****** ****** ****** ****** ****** ******
      ****** ****** ****** ****** ****** ****** ****** ****** ****** ******
      ****** ****** ****** ****** ****** ****** ****** ****** ****** ******
   4  ****** ****** ****** ****** ****** ****** ****** ****** ****** ******
      ****** ****** ****** ****** ****** ****** ****** ****** ****** ******
      ****** ****** ****** ****** ****** ****** ****** ****** ****** ******
   5  ****** ****** ****** ****** ****** ****** ****** ****** ****** ******
      ****** ****** ****** ****** ****** ****** ****** ****** ****** ******
      ****** ****** ****** ****** ****** ****** ****** ****** ****** ******
   6  ****** ****** ****** ****** ****** ****** ****** ****** ****** ******
      ****** ****** ****** ****** ****** ****** ****** ****** ****** ******
      ****** ****** ****** ****** ****** ****** ****** ****** ****** ******
   7  ****** ****** ****** ****** ****** ****** ****** ****** ****** ******
      ****** ****** ****** ****** ****** ****** ****** ****** ****** ******
      ****** ****** ****** ****** ****** ****** ****** ****** ****** ******
   8  ****** ****** ****** ****** ****** ****** ****** ****** ****** ******
      ****** ****** ****** ****** ****** ****** ****** ****** ****** ******
      ****** ****** ****** ****** ****** ****** ****** ****** ****** ******
   9  ****** ****** ****** ****** ****** ****** ****** ****** ****** ******
      ****** ****** ****** ****** ****** ****** ****** ****** ****** ******
      ****** ****** ****** ****** ****** ****** ****** ****** ****** ******
  10  ****** ****** ****** ****** ****** ****** ****** ****** ****** ******
      ****** ****** ****** ****** ****** ****** ****** ****** ****** ******
      ****** ****** ****** ****** ****** ****** ****** ****** ****** ******
  11  ****** ****** ****** ****** ****** ****** ****** ****** ****** ******
      ****** ****** ****** ****** ****** ****** ****** ****** ****** ******
      ****** ****** ****** ****** ****** ****** ****** ****** ****** ******
  12  ****** ****** ****** ****** ****** ****** ****** ****** ****** ******
      ****** ****** ****** ****** ****** ****** ****** ****** ****** ******
      ****** ****** ****** ****** ****** ****** ****** ****** ****** ******
  13  ****** ****** ****** ****** ****** ****** ****** ****** ****** ******
      ****** ****** ****** ****** ****** ****** ****** ****** ****** ******
      ****** ****** ****** ****** ****** ****** ****** ****** ****** ******
  14  ****** ****** ****** ****** ****** ****** ****** ****** ****** ******
      ****** ****** ****** ****** ****** ****** ****** ****** ****** ******
      ****** ****** ****** ****** ****** ****** ****** ****** ****** ******
  15  ****** ****** ****** ****** ****** ****** ****** ****** ****** ******
      ****** ****** ****** ****** ****** ****** ****** ****** ****** ******
      ****** ****** ****** ****** ****** ****** ****** ****** ****** ******
  16  ****** ****** ****** ****** ****** ****** ****** ****** ****** ******
      ****** ****** ****** ****** ****** ****** ****** ****** ****** ******
      ****** ****** ****** ****** ****** ****** ****** ****** ****** ******
  17  ****** ****** ****** ****** ****** ****** ****** ****** ****** ******
      ****** ****** ****** ****** ****** ****** ****** ****** ****** ******
      ****** ****** ****** ****** ****** ****** ****** ****** ****** ******
  18  ****** ****** ****** ****** ****** ****** ****** ****** ****** ******
      ****** ****** ****** ****** ****** ****** ****** ****** ****** ******
      ****** ****** ****** ****** ****** ****** ****** ****** ****** ******
  19  ****** ****** ****** ****** ****** ****** ****** ****** ****** ******
      ****** ****** ****** ****** ****** ****** ****** ****** ****** ******
      ****** ****** ****** ****** ****** ****** ****** ****** ****** ******
  20  ****** ****** ****** ****** ****** ****** ****** ****** ****** ******
      ****** ****** ****** ****** ****** ****** ****** ****** ****** ******
      ****** ****** ****** ****** ****** ****** ****** ****** ****** ******
  21  ****** ****** ****** ****** ****** ****** ****** ****** ****** ******
      ****** ****** ****** ****** ****** ****** ****** ****** ****** ******
      ****** ****** ****** ****** ****** ****** ****** ****** ****** ******
  22  ****** ****** ****** ****** ****** ****** ****** ****** ****** ******
      ****** ****** ****** ****** ****** ****** ****** ****** ****** ******
      ****** ****** ****** ****** ****** ****** ****** ****** ****** ******
  23  ****** ****** ****** ****** ****** ****** ****** ****** ****** ******
      ****** ****** ****** ****** ****** ****** ****** ****** ****** ******
      ****** ****** ****** ****** ****** ****** ****** ****** ****** ******
  24  ****** ****** ****** ****** ****** ****** ****** ****** ****** ******
      ****** ****** ****** ****** ****** ****** ****** ****** ****** ******
      ****** ****** ****** ****** ****** ****** ****** ****** ****** ******
  25  ****** ****** ****** ****** ****** ****** ****** ****** ****** ******
      ****** ****** ****** ****** ****** ****** ****** ****** ****** ******
      ****** ****** ****** ****** ****** ****** ****** ****** ****** ******

 HEAD WILL BE SAVED ON UNIT   51 AT END OF TIME STEP    1, STRESS PERIOD    4
1
  VOLUMETRIC BUDGET FOR ENTIRE MODEL AT END OF TIME STEP    1, STRESS PERIOD   4
  ------------------------------------------------------------------------------

     CUMULATIVE VOLUMES      L**3       RATES FOR THIS TIME STEP      L**3/T
     ------------------                 ------------------------

           IN:                                      IN:
           ---                                      ---
             STORAGE =    30764225.0192               STORAGE =       19748.2974
       CONSTANT HEAD =     8421763.3781         CONSTANT HEAD =       31171.0236
               WELLS =           0.0000                 WELLS =           0.0000
            RECHARGE =     8804400.0000              RECHARGE =       27600.0000
      STREAM LEAKAGE =     2153730.3976        STREAM LEAKAGE =        6975.0083

            TOTAL IN =    50144118.7950              TOTAL IN =       85494.3294

          OUT:                                     OUT:
          ----                                     ----
             STORAGE =        1084.2252               STORAGE =          11.9146
       CONSTANT HEAD =           0.0000         CONSTANT HEAD =           0.0000
               WELLS =    14314132.6200                 WELLS =       39216.8017
            RECHARGE =           0.0000              RECHARGE =           0.0000
      STREAM LEAKAGE =    35828904.1089        STREAM LEAKAGE =       46265.6141

           TOTAL OUT =    50144120.9541             TOTAL OUT =       85494.3303

            IN - OUT =          -2.1591              IN - OUT =      -9.5282E-04

 PERCENT DISCREPANCY =          -0.00     PERCENT DISCREPANCY =          -0.00






         TIME SUMMARY AT END OF TIME STEP    1 IN STRESS PERIOD    4
                    SECONDS     MINUTES      HOURS       DAYS        YEARS
                    -----------------------------------------------------------
   TIME STEP LENGTH 7.86240E+06 1.31040E+05  2184.0      91.000     0.24914    
 STRESS PERIOD TIME 7.86240E+06 1.31040E+05  2184.0      91.000     0.24914    
         TOTAL TIME 3.15360E+07 5.25600E+05  8760.0      365.00     0.99932    
1
1
                            STRESS PERIOD NO.    5, LENGTH =   92.00000    
                            -----------------------------------------------

                              NUMBER OF TIME STEPS =     1

                               MULTIPLIER FOR DELT =     1.500

                            INITIAL TIME STEP SIZE =   92.00000    

 WELL NO.  LAYER   ROW   COL   STRESS RATE         
 --------------------------------------------------
      1      1      9     21      -9430.    
      2      1      5     25     -0.1289E+05
      3      1     22     18      -7019.    
      4      1     19      6      -9882.    

      4 WELLS

                 RECHARGE =  5.000000E-04

 REUSING STREAM SEGMENT DATA FROM LAST STRESS PERIOD
 
 SOLVING FOR HEAD 


     7 CALLS TO PCG ROUTINE FOR TIME STEP   1 IN STRESS PERIOD    5
    26 TOTAL ITERATIONS

 OUTPUT CONTROL FOR STRESS PERIOD    5   TIME STEP    1
    SAVE BUDGET
    SAVE HEAD FOR ALL LAYERS
    PRINT HEAD FOR ALL LAYERS
 UBDSV2 SAVING "STREAMFLOW OUT  " ON UNIT  50 AT TIME STEP  1, STRESS PERIOD   5



 STREAM LISTING     PERIOD      5   STEP        1

 LAYER ROW COL. STREAM  RCH.  FLOW INTO     FLOW TO   FLOW OUT OF   OVRLND.     DIRECT     STREAM       STREAM     STREAM     STREAM   STREAMBED  STREAMBED
                SEG.NO.  NO.  STRM. RCH.    AQUIFER    STRM. RCH.    RUNOFF     PRECIP       ET          HEAD       DEPTH      WIDTH   CONDCTNC.   GRADIENT

   1   13    1     1     1    1.0000E+05 -1.7745E+03   1.0177E+05  0.000E+00  0.000E+00  0.000E+00  4.84068E+01  1.454E-01  2.000E+01  2.000E+04 -8.872E-02
   1   13    2     1     2    1.0177E+05 -2.8075E+03   1.0458E+05  0.000E+00  0.000E+00  0.000E+00  4.79315E+01  1.474E-01  2.000E+01  2.000E+04 -1.404E-01
   1   14    3     1     3    1.0458E+05 -3.8835E+02   1.0497E+05  0.000E+00  0.000E+00  0.000E+00  4.74556E+01  1.488E-01  2.000E+01  2.000E+04 -1.942E-02
   1   15    4     1     4    1.0497E+05 -2.6419E+02   1.0523E+05  0.000E+00  0.000E+00  0.000E+00  4.69786E+01  1.490E-01  2.000E+01  2.000E+04 -1.321E-02
   1   16    5     1     5    1.0523E+05  3.5751E+02   1.0488E+05  0.000E+00  0.000E+00  0.000E+00  4.65013E+01  1.490E-01  2.000E+01  2.000E+04  1.788E-02
   1   16    6     1     6    1.0488E+05  3.0130E+02   1.0458E+05  0.000E+00  0.000E+00  0.000E+00  4.60237E+01  1.487E-01  2.000E+01  2.000E+04  1.507E-02
   1   16    7     1     7    1.0458E+05  7.5420E+01   1.0450E+05  0.000E+00  0.000E+00  0.000E+00  4.55463E+01  1.486E-01  2.000E+01  2.000E+04  3.771E-03
   1   16    8     1     8    1.0450E+05 -1.7979E+02   1.0468E+05  0.000E+00  0.000E+00  0.000E+00  4.50691E+01  1.486E-01  2.000E+01  2.000E+04 -8.989E-03
   1   16    9     1     9    1.0468E+05 -3.6751E+02   1.0505E+05  0.000E+00  0.000E+00  0.000E+00  4.45920E+01  1.488E-01  2.000E+01  2.000E+04 -1.838E-02
   1   16   10     1    10    1.0505E+05 -4.7606E+02   1.0552E+05  0.000E+00  0.000E+00  0.000E+00  4.41151E+01  1.492E-01  2.000E+01  2.000E+04 -2.380E-02
   1   16   11     1    11    1.0552E+05 -5.2888E+02   1.0605E+05  0.000E+00  0.000E+00  0.000E+00  4.36383E+01  1.496E-01  2.000E+01  2.000E+04 -2.644E-02
   1   16   12     1    12    1.0605E+05 -1.0315E+03   1.0708E+05  0.000E+00  0.000E+00  0.000E+00  4.31616E+01  1.503E-01  2.000E+01  2.000E+04 -5.158E-02
   1   15   13     1    13    1.0708E+05 -1.2418E+03   1.0833E+05  0.000E+00  0.000E+00  0.000E+00  4.26853E+01  1.512E-01  2.000E+01  2.000E+04 -6.209E-02
   1   14   14     1    14    1.0833E+05 -1.6183E+03   1.0994E+05  0.000E+00  0.000E+00  0.000E+00  4.22093E+01  1.524E-01  2.000E+01  2.000E+04 -8.091E-02
   1   13   15     1    15    1.0994E+05 -1.9522E+03   1.1190E+05  0.000E+00  0.000E+00  0.000E+00  4.17335E+01  1.539E-01  2.000E+01  2.000E+04 -9.761E-02
   1   12   16     1    16    1.1190E+05 -2.4453E+03   1.1434E+05  0.000E+00  0.000E+00  0.000E+00  4.12580E+01  1.558E-01  2.000E+01  2.000E+04 -1.223E-01
   1   12   17     1    17    1.1434E+05 -1.3109E+03   1.1565E+05  0.000E+00  0.000E+00  0.000E+00  4.07823E+01  1.573E-01  2.000E+01  2.000E+04 -6.555E-02
   1   12   18     1    18    1.1565E+05 -9.9096E+02   1.1664E+05  0.000E+00  0.000E+00  0.000E+00  4.03060E+01  1.582E-01  2.000E+01  2.000E+04 -4.955E-02
   1   12   19     1    19    1.1664E+05 -6.8651E+02   1.1733E+05  0.000E+00  0.000E+00  0.000E+00  3.98294E+01  1.589E-01  2.000E+01  2.000E+04 -3.433E-02
   1   13   20     1    20    1.1733E+05 -5.6045E+02   1.1789E+05  0.000E+00  0.000E+00  0.000E+00  3.93526E+01  1.594E-01  2.000E+01  2.000E+04 -2.802E-02
   1   14   21     1    21    1.1789E+05 -7.9045E+02   1.1868E+05  0.000E+00  0.000E+00  0.000E+00  3.88759E+01  1.600E-01  2.000E+01  2.000E+04 -3.952E-02
   1   14   22     1    22    1.1868E+05  5.1377E+03   1.1354E+05  0.000E+00  0.000E+00  0.000E+00  3.83969E+01  1.582E-01  2.000E+01  2.000E+04  2.569E-01
   1    9   30     2     1    5.0000E+04  3.2391E+02   4.9676E+04  0.000E+00  0.000E+00  0.000E+00  4.02406E+01  1.156E-01  2.000E+01  2.000E+04  1.620E-02
   1    9   29     2     2    4.9676E+04  1.1766E+02   4.9558E+04  0.000E+00  0.000E+00  0.000E+00  3.99903E+01  1.153E-01  2.000E+01  2.000E+04  5.883E-03
   1    9   28     2     3    4.9558E+04  8.7399E+01   4.9471E+04  0.000E+00  0.000E+00  0.000E+00  3.97402E+01  1.152E-01  2.000E+01  2.000E+04  4.370E-03
   1    9   27     2     4    4.9471E+04  9.9168E+01   4.9372E+04  0.000E+00  0.000E+00  0.000E+00  3.94901E+01  1.151E-01  2.000E+01  2.000E+04  4.958E-03
   1   10   26     2     5    4.9372E+04  2.3131E+02   4.9141E+04  0.000E+00  0.000E+00  0.000E+00  3.92398E+01  1.148E-01  2.000E+01  2.000E+04  1.157E-02
   1   11   25     2     6    4.9141E+04  1.4911E+02   4.8991E+04  0.000E+00  0.000E+00  0.000E+00  3.89896E+01  1.146E-01  2.000E+01  2.000E+04  7.455E-03
   1   12   24     2     7    4.8991E+04 -4.0812E+01   4.9032E+04  0.000E+00  0.000E+00  0.000E+00  3.87395E+01  1.145E-01  2.000E+01  2.000E+04 -2.041E-03
   1   13   23     2     8    4.9032E+04 -1.9239E+01   4.9051E+04  0.000E+00  0.000E+00  0.000E+00  3.84895E+01  1.145E-01  2.000E+01  2.000E+04 -9.620E-04
   1   14   22     2     9    4.9051E+04  1.9639E+03   4.7088E+04  0.000E+00  0.000E+00  0.000E+00  3.82382E+01  1.132E-01  2.000E+01  2.000E+04  9.819E-02
   1   14   22     3     1    1.6063E+05 -8.4479E+03   1.6908E+05  0.000E+00  0.000E+00  0.000E+00  3.77176E+01  1.620E-01  2.000E+01  2.000E+04 -4.224E-01
   1   15   23     3     2    1.6908E+05 -4.3181E+02   1.6951E+05  0.000E+00  0.000E+00  0.000E+00  3.68313E+01  1.646E-01  2.000E+01  2.000E+04 -2.159E-02
   1   15   24     3     3    1.6951E+05 -2.3949E+02   1.6975E+05  0.000E+00  0.000E+00  0.000E+00  3.59426E+01  1.648E-01  2.000E+01  2.000E+04 -1.197E-02
   1   15   25     3     4    1.6975E+05 -2.4040E+02   1.6999E+05  0.000E+00  0.000E+00  0.000E+00  3.50538E+01  1.650E-01  2.000E+01  2.000E+04 -1.202E-02
   1   15   26     3     5    1.6999E+05 -2.9441E+02   1.7028E+05  0.000E+00  0.000E+00  0.000E+00  3.41651E+01  1.651E-01  2.000E+01  2.000E+04 -1.472E-02
   1   16   27     3     6    1.7028E+05 -3.2190E+02   1.7061E+05  0.000E+00  0.000E+00  0.000E+00  3.32764E+01  1.653E-01  2.000E+01  2.000E+04 -1.609E-02
   1   17   28     3     7    1.7061E+05 -1.4117E+03   1.7202E+05  0.000E+00  0.000E+00  0.000E+00  3.23880E+01  1.658E-01  2.000E+01  2.000E+04 -7.058E-02
   1   18   29     3     8    1.7202E+05 -2.7142E+03   1.7473E+05  0.000E+00  0.000E+00  0.000E+00  3.15003E+01  1.670E-01  2.000E+01  2.000E+04 -1.357E-01
   1   18   30     3     9    1.7473E+05 -3.0444E+03   1.7778E+05  0.000E+00  0.000E+00  0.000E+00  3.06131E+01  1.686E-01  2.000E+01  2.000E+04 -1.522E-01



1
              HEAD IN LAYER   1 AT END OF TIME STEP   1 IN STRESS PERIOD    5
  ---------------------------------------------------------------------------

          1      2      3      4      5      6      7      8      9     10
         11     12     13     14     15     16     17     18     19     20
         21     22     23     24     25     26     27     28     29     30
 .........................................................................
   1  ****** ****** ****** ****** ****** ****** ****** ****** ****** ******
      ****** ****** ****** ****** ****** ****** ****** ****** ****** ******
      ****** ****** ****** ****** ****** ****** ****** ****** ****** ******
   2  ****** ****** ****** ****** ****** ****** ****** ****** ****** ******
      ****** ****** ****** ****** ****** ****** ****** ****** ****** ******
      ****** ****** ****** ****** ****** ****** ****** ****** ****** ******
   3  ****** ****** ****** ****** ****** ****** ****** ****** ****** ******
      ****** ****** ****** ****** ****** ****** ****** ****** ****** ******
      ****** ****** ****** ****** ****** ****** ****** ****** ****** ******
   4  ****** ****** ****** ****** ****** ****** ****** ****** ****** ******
      ****** ****** ****** ****** ****** ****** ****** ****** ****** ******
      ****** ****** ****** ****** ****** ****** ****** ****** ****** ******
   5  ****** ****** ****** ****** ****** ****** ****** ****** ****** ******
      ****** ****** ****** ****** ****** ****** ****** ****** ****** ******
      ****** ****** ****** ****** ****** ****** ****** ****** ****** ******
   6  ****** ****** ****** ****** ****** ****** ****** ****** ****** ******
      ****** ****** ****** ****** ****** ****** ****** ****** ****** ******
      ****** ****** ****** ****** ****** ****** ****** ****** ****** ******
   7  ****** ****** ****** ****** ****** ****** ****** ****** ****** ******
      ****** ****** ****** ****** ****** ****** ****** ****** ****** ******
      ****** ****** ****** ****** ****** ****** ****** ****** ****** ******
   8  ****** ****** ****** ****** ****** ****** ****** ****** ****** ******
      ****** ****** ****** ****** ****** ****** ****** ****** ****** ******
      ****** ****** ****** ****** ****** ****** ****** ****** ****** ******
   9  ****** ****** ****** ****** ****** ****** ****** ****** ****** ******
      ****** ****** ****** ****** ****** ****** ****** ****** ****** ******
      ****** ****** ****** ****** ****** ****** ****** ****** ****** ******
  10  ****** ****** ****** ****** ****** ****** ****** ****** ****** ******
      ****** ****** ****** ****** ****** ****** ****** ****** ****** ******
      ****** ****** ****** ****** ****** ****** ****** ****** ****** ******
  11  ****** ****** ****** ****** ****** ****** ****** ****** ****** ******
      ****** ****** ****** ****** ****** ****** ****** ****** ****** ******
      ****** ****** ****** ****** ****** ****** ****** ****** ****** ******
  12  ****** ****** ****** ****** ****** ****** ****** ****** ****** ******
      ****** ****** ****** ****** ****** ****** ****** ****** ****** ******
      ****** ****** ****** ****** ****** ****** ****** ****** ****** ******
  13  ****** ****** ****** ****** ****** ****** ****** ****** ****** ******
      ****** ****** ****** ****** ****** ****** ****** ****** ****** ******
      ****** ****** ****** ****** ****** ****** ****** ****** ****** ******
  14  ****** ****** ****** ****** ****** ****** ****** ****** ****** ******
      ****** ****** ****** ****** ****** ****** ****** ****** ****** ******
      ****** ****** ****** ****** ****** ****** ****** ****** ****** ******
  15  ****** ****** ****** ****** ****** ****** ****** ****** ****** ******
      ****** ****** ****** ****** ****** ****** ****** ****** ****** ******
      ****** ****** ****** ****** ****** ****** ****** ****** ****** ******
  16  ****** ****** ****** ****** ****** ****** ****** ****** ****** ******
      ****** ****** ****** ****** ****** ****** ****** ****** ****** ******
      ****** ****** ****** ****** ****** ****** ****** ****** ****** ******
  17  ****** ****** ****** ****** ****** ****** ****** ****** ****** ******
      ****** ****** ****** ****** ****** ****** ****** ****** ****** ******
      ****** ****** ****** ****** ****** ****** ****** ****** ****** ******
  18  ****** ****** ****** ****** ****** ****** ****** ****** ****** ******
      ****** ****** ****** ****** ****** ****** ****** ****** ****** ******
      ****** ****** ****** ****** ****** ****** ****** ****** ****** ******
  19  ****** ****** ****** ****** ****** ****** ****** ****** ****** ******
      ****** ****** ****** ****** ****** ****** ****** ****** ****** ******
      ****** ****** ****** ****** ****** ****** ****** ****** ****** ******
  20  ****** ****** ****** ****** ****** ****** ****** ****** ****** ******
      ****** ****** ****** ****** ****** ****** ****** ****** ****** ******
      ****** ****** ****** ****** ****** ****** ****** ****** ****** ******
  21  ****** ****** ****** ****** ****** ****** ****** ****** ****** ******
      ****** ****** ****** ****** ****** ****** ****** ****** ****** ******
      ****** ****** ****** ****** ****** ****** ****** ****** ****** ******
  22  ****** ****** ****** ****** ****** ****** ****** ****** ****** ******
      ****** ****** ****** ****** ****** ****** ****** ****** ****** ******
      ****** ****** ****** ****** ****** ****** ****** ****** ****** ******
  23  ****** ****** ****** ****** ****** ****** ****** ****** ****** ******
      ****** ****** ****** ****** ****** ****** ****** ****** ****** ******
      ****** ****** ****** ****** ****** ****** ****** ****** ****** ******
  24  ****** ****** ****** ****** ****** ****** ****** ****** ****** ******
      ****** ****** ****** ****** ****** ****** ****** ****** ****** ******
      ****** ****** ****** ****** ****** ****** ****** ****** ****** ******
  25  ****** ****** ****** ****** ****** ****** ****** ****** ****** ******
      ****** ****** ****** ****** ****** ****** ****** ****** ****** ******
      ****** ****** ****** ****** ****** ****** ****** ****** ****** ******

 HEAD WILL BE SAVED ON UNIT   51 AT END OF TIME STEP    1, STRESS PERIOD    5
1
  VOLUMETRIC BUDGET FOR ENTIRE MODEL AT END OF TIME STEP    1, STRESS PERIOD   5
  ------------------------------------------------------------------------------

     CUMULATIVE VOLUMES      L**3       RATES FOR THIS TIME STEP      L**3/T
     ------------------                 ------------------------

           IN:                                      IN:
           ---                                      ---
             STORAGE =    32507309.7966               STORAGE =       18946.5737
       CONSTANT HEAD =    11572498.0417         CONSTANT HEAD =       34247.1159
               WELLS =           0.0000                 WELLS =           0.0000
            RECHARGE =    10074000.0000              RECHARGE =       13800.0000
      STREAM LEAKAGE =     2967414.3865        STREAM LEAKAGE =        8844.3912

            TOTAL IN =    57121222.2248              TOTAL IN =       75838.0808

          OUT:                                     OUT:
          ----                                     ----
             STORAGE =        1084.2252               STORAGE =           0.0000
       CONSTANT HEAD =           0.0000         CONSTANT HEAD =           0.0000
               WELLS =    17922078.3763                 WELLS =       39216.8017
            RECHARGE =           0.0000              RECHARGE =           0.0000
      STREAM LEAKAGE =    39198062.0960        STREAM LEAKAGE =       36621.2825

           TOTAL OUT =    57121224.6974             TOTAL OUT =       75838.0842

            IN - OUT =          -2.4726              IN - OUT =      -3.4083E-03

 PERCENT DISCREPANCY =          -0.00     PERCENT DISCREPANCY =          -0.00






         TIME SUMMARY AT END OF TIME STEP    1 IN STRESS PERIOD    5
                    SECONDS     MINUTES      HOURS       DAYS        YEARS
                    -----------------------------------------------------------
   TIME STEP LENGTH 7.94880E+06 1.32480E+05  2208.0      92.000     0.25188    
 STRESS PERIOD TIME 7.94880E+06 1.32480E+05  2208.0      92.000     0.25188    
         TOTAL TIME 3.94848E+07 6.58080E+05  10968.      457.00      1.2512    
1
1
                            STRESS PERIOD NO.    6, LENGTH =   91.00000    
                            -----------------------------------------------

                              NUMBER OF TIME STEPS =     1

                               MULTIPLIER FOR DELT =     1.500

                            INITIAL TIME STEP SIZE =   91.00000    

 WELL NO.  LAYER   ROW   COL   STRESS RATE         
 --------------------------------------------------
      1      1      9     21      -9430.    
      2      1      5     25     -0.1289E+05
      3      1     22     18      -7019.    
      4      1     19      6      -9882.    

      4 WELLS

                 RECHARGE =  2.000000E-03

 REUSING STREAM SEGMENT DATA FROM LAST STRESS PERIOD
 
 SOLVING FOR HEAD 


     7 CALLS TO PCG ROUTINE FOR TIME STEP   1 IN STRESS PERIOD    6
    26 TOTAL ITERATIONS

 OUTPUT CONTROL FOR STRESS PERIOD    6   TIME STEP    1
    SAVE BUDGET
    SAVE HEAD FOR ALL LAYERS
    PRINT HEAD FOR ALL LAYERS
 UBDSV2 SAVING "STREAMFLOW OUT  " ON UNIT  50 AT TIME STEP  1, STRESS PERIOD   6



 STREAM LISTING     PERIOD      6   STEP        1

 LAYER ROW COL. STREAM  RCH.  FLOW INTO     FLOW TO   FLOW OUT OF   OVRLND.     DIRECT     STREAM       STREAM     STREAM     STREAM   STREAMBED  STREAMBED
                SEG.NO.  NO.  STRM. RCH.    AQUIFER    STRM. RCH.    RUNOFF     PRECIP       ET          HEAD       DEPTH      WIDTH   CONDCTNC.   GRADIENT

   1   13    1     1     1    1.0000E+05 -2.0842E+03   1.0208E+05  0.000E+00  0.000E+00  0.000E+00  4.84069E+01  1.456E-01  2.000E+01  2.000E+04 -1.042E-01
   1   13    2     1     2    1.0208E+05 -3.1476E+03   1.0523E+05  0.000E+00  0.000E+00  0.000E+00  4.79319E+01  1.478E-01  2.000E+01  2.000E+04 -1.574E-01
   1   14    3     1     3    1.0523E+05 -5.4153E+02   1.0577E+05  0.000E+00  0.000E+00  0.000E+00  4.74562E+01  1.494E-01  2.000E+01  2.000E+04 -2.708E-02
   1   15    4     1     4    1.0577E+05 -4.2791E+02   1.0620E+05  0.000E+00  0.000E+00  0.000E+00  4.69793E+01  1.498E-01  2.000E+01  2.000E+04 -2.140E-02
   1   16    5     1     5    1.0620E+05 -1.1838E+02   1.0632E+05  0.000E+00  0.000E+00  0.000E+00  4.65023E+01  1.500E-01  2.000E+01  2.000E+04 -5.919E-03
   1   16    6     1     6    1.0632E+05  1.9642E+01   1.0630E+05  0.000E+00  0.000E+00  0.000E+00  4.60251E+01  1.501E-01  2.000E+01  2.000E+04  9.821E-04
   1   16    7     1     7    1.0630E+05 -1.9217E+02   1.0649E+05  0.000E+00  0.000E+00  0.000E+00  4.55479E+01  1.501E-01  2.000E+01  2.000E+04 -9.608E-03
   1   16    8     1     8    1.0649E+05 -4.4333E+02   1.0694E+05  0.000E+00  0.000E+00  0.000E+00  4.50709E+01  1.504E-01  2.000E+01  2.000E+04 -2.217E-02
   1   16    9     1     9    1.0694E+05 -6.3080E+02   1.0757E+05  0.000E+00  0.000E+00  0.000E+00  4.45940E+01  1.509E-01  2.000E+01  2.000E+04 -3.154E-02
   1   16   10     1    10    1.0757E+05 -7.4094E+02   1.0831E+05  0.000E+00  0.000E+00  0.000E+00  4.41173E+01  1.514E-01  2.000E+01  2.000E+04 -3.705E-02
   1   16   11     1    11    1.0831E+05 -7.9659E+02   1.0910E+05  0.000E+00  0.000E+00  0.000E+00  4.36407E+01  1.521E-01  2.000E+01  2.000E+04 -3.983E-02
   1   16   12     1    12    1.0910E+05 -1.4632E+03   1.1057E+05  0.000E+00  0.000E+00  0.000E+00  4.31644E+01  1.530E-01  2.000E+01  2.000E+04 -7.316E-02
   1   15   13     1    13    1.1057E+05 -1.6870E+03   1.1225E+05  0.000E+00  0.000E+00  0.000E+00  4.26884E+01  1.543E-01  2.000E+01  2.000E+04 -8.435E-02
   1   14   14     1    14    1.1225E+05 -2.0594E+03   1.1431E+05  0.000E+00  0.000E+00  0.000E+00  4.22127E+01  1.559E-01  2.000E+01  2.000E+04 -1.030E-01
   1   13   15     1    15    1.1431E+05 -2.3741E+03   1.1669E+05  0.000E+00  0.000E+00  0.000E+00  4.17373E+01  1.577E-01  2.000E+01  2.000E+04 -1.187E-01
   1   12   16     1    16    1.1669E+05 -2.8195E+03   1.1951E+05  0.000E+00  0.000E+00  0.000E+00  4.12621E+01  1.598E-01  2.000E+01  2.000E+04 -1.410E-01
   1   12   17     1    17    1.1951E+05 -1.6160E+03   1.2112E+05  0.000E+00  0.000E+00  0.000E+00  4.07866E+01  1.616E-01  2.000E+01  2.000E+04 -8.080E-02
   1   12   18     1    18    1.2112E+05 -1.2994E+03   1.2242E+05  0.000E+00  0.000E+00  0.000E+00  4.03105E+01  1.628E-01  2.000E+01  2.000E+04 -6.497E-02
   1   12   19     1    19    1.2242E+05 -1.0688E+03   1.2349E+05  0.000E+00  0.000E+00  0.000E+00  3.98342E+01  1.637E-01  2.000E+01  2.000E+04 -5.344E-02
   1   13   20     1    20    1.2349E+05 -9.7199E+02   1.2446E+05  0.000E+00  0.000E+00  0.000E+00  3.93577E+01  1.646E-01  2.000E+01  2.000E+04 -4.860E-02
   1   14   21     1    21    1.2446E+05 -1.1906E+03   1.2565E+05  0.000E+00  0.000E+00  0.000E+00  3.88813E+01  1.654E-01  2.000E+01  2.000E+04 -5.953E-02
   1   14   22     1    22    1.2565E+05  5.0323E+03   1.2062E+05  0.000E+00  0.000E+00  0.000E+00  3.84025E+01  1.639E-01  2.000E+01  2.000E+04  2.516E-01
   1    9   30     2     1    5.0000E+04 -3.0780E+01   5.0031E+04  0.000E+00  0.000E+00  0.000E+00  4.02409E+01  1.159E-01  2.000E+01  2.000E+04 -1.539E-03
   1    9   29     2     2    5.0031E+04 -2.3240E+02   5.0263E+04  0.000E+00  0.000E+00  0.000E+00  3.99911E+01  1.161E-01  2.000E+01  2.000E+04 -1.162E-02
   1    9   28     2     3    5.0263E+04 -2.5508E+02   5.0518E+04  0.000E+00  0.000E+00  0.000E+00  3.97414E+01  1.164E-01  2.000E+01  2.000E+04 -1.275E-02
   1    9   27     2     4    5.0518E+04 -3.2908E+02   5.0847E+04  0.000E+00  0.000E+00  0.000E+00  3.94918E+01  1.168E-01  2.000E+01  2.000E+04 -1.645E-02
   1   10   26     2     5    5.0847E+04 -2.2671E+02   5.1074E+04  0.000E+00  0.000E+00  0.000E+00  3.92422E+01  1.172E-01  2.000E+01  2.000E+04 -1.134E-02
   1   11   25     2     6    5.1074E+04 -2.9664E+02   5.1371E+04  0.000E+00  0.000E+00  0.000E+00  3.89926E+01  1.176E-01  2.000E+01  2.000E+04 -1.483E-02
   1   12   24     2     7    5.1371E+04 -4.4290E+02   5.1814E+04  0.000E+00  0.000E+00  0.000E+00  3.87431E+01  1.181E-01  2.000E+01  2.000E+04 -2.214E-02
   1   13   23     2     8    5.1814E+04 -1.5594E+02   5.1970E+04  0.000E+00  0.000E+00  0.000E+00  3.84935E+01  1.185E-01  2.000E+01  2.000E+04 -7.797E-03
   1   14   22     2     9    5.1970E+04  1.8282E+03   5.0141E+04  0.000E+00  0.000E+00  0.000E+00  3.82423E+01  1.173E-01  2.000E+01  2.000E+04  9.141E-02
   1   14   22     3     1    1.7076E+05 -8.5482E+03   1.7931E+05  0.000E+00  0.000E+00  0.000E+00  3.77235E+01  1.679E-01  2.000E+01  2.000E+04 -4.274E-01
   1   15   23     3     2    1.7931E+05 -5.6675E+02   1.7988E+05  0.000E+00  0.000E+00  0.000E+00  3.68372E+01  1.706E-01  2.000E+01  2.000E+04 -2.834E-02
   1   15   24     3     3    1.7988E+05 -3.6033E+02   1.8024E+05  0.000E+00  0.000E+00  0.000E+00  3.59486E+01  1.708E-01  2.000E+01  2.000E+04 -1.802E-02
   1   15   25     3     4    1.8024E+05 -3.6593E+02   1.8060E+05  0.000E+00  0.000E+00  0.000E+00  3.50599E+01  1.710E-01  2.000E+01  2.000E+04 -1.830E-02
   1   15   26     3     5    1.8060E+05 -4.4525E+02   1.8105E+05  0.000E+00  0.000E+00  0.000E+00  3.41713E+01  1.713E-01  2.000E+01  2.000E+04 -2.226E-02
   1   16   27     3     6    1.8105E+05 -4.8962E+02   1.8154E+05  0.000E+00  0.000E+00  0.000E+00  3.32826E+01  1.715E-01  2.000E+01  2.000E+04 -2.448E-02
   1   17   28     3     7    1.8154E+05 -1.8708E+03   1.8341E+05  0.000E+00  0.000E+00  0.000E+00  3.23944E+01  1.722E-01  2.000E+01  2.000E+04 -9.354E-02
   1   18   29     3     8    1.8341E+05 -3.1461E+03   1.8656E+05  0.000E+00  0.000E+00  0.000E+00  3.15069E+01  1.736E-01  2.000E+01  2.000E+04 -1.573E-01
   1   18   30     3     9    1.8656E+05 -3.3960E+03   1.8995E+05  0.000E+00  0.000E+00  0.000E+00  3.06199E+01  1.754E-01  2.000E+01  2.000E+04 -1.698E-01



1
              HEAD IN LAYER   1 AT END OF TIME STEP   1 IN STRESS PERIOD    6
  ---------------------------------------------------------------------------

          1      2      3      4      5      6      7      8      9     10
         11     12     13     14     15     16     17     18     19     20
         21     22     23     24     25     26     27     28     29     30
 .........................................................................
   1  ****** ****** ****** ****** ****** ****** ****** ****** ****** ******
      ****** ****** ****** ****** ****** ****** ****** ****** ****** ******
      ****** ****** ****** ****** ****** ****** ****** ****** ****** ******
   2  ****** ****** ****** ****** ****** ****** ****** ****** ****** ******
      ****** ****** ****** ****** ****** ****** ****** ****** ****** ******
      ****** ****** ****** ****** ****** ****** ****** ****** ****** ******
   3  ****** ****** ****** ****** ****** ****** ****** ****** ****** ******
      ****** ****** ****** ****** ****** ****** ****** ****** ****** ******
      ****** ****** ****** ****** ****** ****** ****** ****** ****** ******
   4  ****** ****** ****** ****** ****** ****** ****** ****** ****** ******
      ****** ****** ****** ****** ****** ****** ****** ****** ****** ******
      ****** ****** ****** ****** ****** ****** ****** ****** ****** ******
   5  ****** ****** ****** ****** ****** ****** ****** ****** ****** ******
      ****** ****** ****** ****** ****** ****** ****** ****** ****** ******
      ****** ****** ****** ****** ****** ****** ****** ****** ****** ******
   6  ****** ****** ****** ****** ****** ****** ****** ****** ****** ******
      ****** ****** ****** ****** ****** ****** ****** ****** ****** ******
      ****** ****** ****** ****** ****** ****** ****** ****** ****** ******
   7  ****** ****** ****** ****** ****** ****** ****** ****** ****** ******
      ****** ****** ****** ****** ****** ****** ****** ****** ****** ******
      ****** ****** ****** ****** ****** ****** ****** ****** ****** ******
   8  ****** ****** ****** ****** ****** ****** ****** ****** ****** ******
      ****** ****** ****** ****** ****** ****** ****** ****** ****** ******
      ****** ****** ****** ****** ****** ****** ****** ****** ****** ******
   9  ****** ****** ****** ****** ****** ****** ****** ****** ****** ******
      ****** ****** ****** ****** ****** ****** ****** ****** ****** ******
      ****** ****** ****** ****** ****** ****** ****** ****** ****** ******
  10  ****** ****** ****** ****** ****** ****** ****** ****** ****** ******
      ****** ****** ****** ****** ****** ****** ****** ****** ****** ******
      ****** ****** ****** ****** ****** ****** ****** ****** ****** ******
  11  ****** ****** ****** ****** ****** ****** ****** ****** ****** ******
      ****** ****** ****** ****** ****** ****** ****** ****** ****** ******
      ****** ****** ****** ****** ****** ****** ****** ****** ****** ******
  12  ****** ****** ****** ****** ****** ****** ****** ****** ****** ******
      ****** ****** ****** ****** ****** ****** ****** ****** ****** ******
      ****** ****** ****** ****** ****** ****** ****** ****** ****** ******
  13  ****** ****** ****** ****** ****** ****** ****** ****** ****** ******
      ****** ****** ****** ****** ****** ****** ****** ****** ****** ******
      ****** ****** ****** ****** ****** ****** ****** ****** ****** ******
  14  ****** ****** ****** ****** ****** ****** ****** ****** ****** ******
      ****** ****** ****** ****** ****** ****** ****** ****** ****** ******
      ****** ****** ****** ****** ****** ****** ****** ****** ****** ******
  15  ****** ****** ****** ****** ****** ****** ****** ****** ****** ******
      ****** ****** ****** ****** ****** ****** ****** ****** ****** ******
      ****** ****** ****** ****** ****** ****** ****** ****** ****** ******
  16  ****** ****** ****** ****** ****** ****** ****** ****** ****** ******
      ****** ****** ****** ****** ****** ****** ****** ****** ****** ******
      ****** ****** ****** ****** ****** ****** ****** ****** ****** ******
  17  ****** ****** ****** ****** ****** ****** ****** ****** ****** ******
      ****** ****** ****** ****** ****** ****** ****** ****** ****** ******
      ****** ****** ****** ****** ****** ****** ****** ****** ****** ******
  18  ****** ****** ****** ****** ****** ****** ****** ****** ****** ******
      ****** ****** ****** ****** ****** ****** ****** ****** ****** ******
      ****** ****** ****** ****** ****** ****** ****** ****** ****** ******
  19  ****** ****** ****** ****** ****** ****** ****** ****** ****** ******
      ****** ****** ****** ****** ****** ****** ****** ****** ****** ******
      ****** ****** ****** ****** ****** ****** ****** ****** ****** ******
  20  ****** ****** ****** ****** ****** ****** ****** ****** ****** ******
      ****** ****** ****** ****** ****** ****** ****** ****** ****** ******
      ****** ****** ****** ****** ****** ****** ****** ****** ****** ******
  21  ****** ****** ****** ****** ****** ****** ****** ****** ****** ******
      ****** ****** ****** ****** ****** ****** ****** ****** ****** ******
      ****** ****** ****** ****** ****** ****** ****** ****** ****** ******
  22  ****** ****** ****** ****** ****** ****** ****** ****** ****** ******
      ****** ****** ****** ****** ****** ****** ****** ****** ****** ******
      ****** ****** ****** ****** ****** ****** ****** ****** ****** ******
  23  ****** ****** ****** ****** ****** ****** ****** ****** ****** ******
      ****** ****** ****** ****** ****** ****** ****** ****** ****** ******
      ****** ****** ****** ****** ****** ****** ****** ****** ****** ******
  24  ****** ****** ****** ****** ****** ****** ****** ****** ****** ******
      ****** ****** ****** ****** ****** ****** ****** ****** ****** ******
      ****** ****** ****** ****** ****** ****** ****** ****** ****** ******
  25  ****** ****** ****** ****** ****** ****** ****** ****** ****** ******
      ****** ****** ****** ****** ****** ****** ****** ****** ****** ******
      ****** ****** ****** ****** ****** ****** ****** ****** ****** ******

 HEAD WILL BE SAVED ON UNIT   51 AT END OF TIME STEP    1, STRESS PERIOD    6
1
  VOLUMETRIC BUDGET FOR ENTIRE MODEL AT END OF TIME STEP    1, STRESS PERIOD   6
  ------------------------------------------------------------------------------

     CUMULATIVE VOLUMES      L**3       RATES FOR THIS TIME STEP      L**3/T
     ------------------                 ------------------------

           IN:                                      IN:
           ---                                      ---
             STORAGE =    32507309.7966               STORAGE =           0.0000
       CONSTANT HEAD =    14522584.0969         CONSTANT HEAD =       32418.5281
               WELLS =           0.0000                 WELLS =           0.0000
            RECHARGE =    15097200.0000              RECHARGE =       55200.0000
      STREAM LEAKAGE =     3593506.9471        STREAM LEAKAGE =        6880.1380

            TOTAL IN =    65720600.8406              TOTAL IN =       94498.6661

          OUT:                                     OUT:
          ----                                     ----
             STORAGE =      770034.7050               STORAGE =        8450.0053
       CONSTANT HEAD =           0.0000         CONSTANT HEAD =           0.0000
               WELLS =    21490807.3308                 WELLS =       39216.8017
            RECHARGE =           0.0000              RECHARGE =           0.0000
      STREAM LEAKAGE =    43459761.0077        STREAM LEAKAGE =       46831.8562

           TOTAL OUT =    65720603.0436             TOTAL OUT =       94498.6631

            IN - OUT =          -2.2030              IN - OUT =       2.9634E-03

 PERCENT DISCREPANCY =          -0.00     PERCENT DISCREPANCY =           0.00






         TIME SUMMARY AT END OF TIME STEP    1 IN STRESS PERIOD    6
                    SECONDS     MINUTES      HOURS       DAYS        YEARS
                    -----------------------------------------------------------
   TIME STEP LENGTH 7.86240E+06 1.31040E+05  2184.0      91.000     0.24914    
 STRESS PERIOD TIME 7.86240E+06 1.31040E+05  2184.0      91.000     0.24914    
         TOTAL TIME 4.73472E+07 7.89120E+05  13152.      548.00      1.5003    
1
1
                            STRESS PERIOD NO.    7, LENGTH =   91.00000    
                            -----------------------------------------------

                              NUMBER OF TIME STEPS =     1

                               MULTIPLIER FOR DELT =     1.500

                            INITIAL TIME STEP SIZE =   91.00000    

 WELL NO.  LAYER   ROW   COL   STRESS RATE         
 --------------------------------------------------
      1      1      9     21      -9430.    
      2      1      5     25     -0.1289E+05
      3      1     22     18      -7019.    
      4      1     19      6      -9882.    

      4 WELLS

                 RECHARGE =   0.00000    

 REUSING STREAM SEGMENT DATA FROM LAST STRESS PERIOD
 
 SOLVING FOR HEAD 


     7 CALLS TO PCG ROUTINE FOR TIME STEP   1 IN STRESS PERIOD    7
    26 TOTAL ITERATIONS

 OUTPUT CONTROL FOR STRESS PERIOD    7   TIME STEP    1
    SAVE BUDGET
    SAVE HEAD FOR ALL LAYERS
    PRINT HEAD FOR ALL LAYERS
 UBDSV2 SAVING "STREAMFLOW OUT  " ON UNIT  50 AT TIME STEP  1, STRESS PERIOD   7



 STREAM LISTING     PERIOD      7   STEP        1

 LAYER ROW COL. STREAM  RCH.  FLOW INTO     FLOW TO   FLOW OUT OF   OVRLND.     DIRECT     STREAM       STREAM     STREAM     STREAM   STREAMBED  STREAMBED
                SEG.NO.  NO.  STRM. RCH.    AQUIFER    STRM. RCH.    RUNOFF     PRECIP       ET          HEAD       DEPTH      WIDTH   CONDCTNC.   GRADIENT

   1   13    1     1     1    1.0000E+05 -1.4160E+03   1.0142E+05  0.000E+00  0.000E+00  0.000E+00  4.84066E+01  1.453E-01  2.000E+01  2.000E+04 -7.080E-02
   1   13    2     1     2    1.0142E+05 -2.4006E+03   1.0382E+05  0.000E+00  0.000E+00  0.000E+00  4.79310E+01  1.469E-01  2.000E+01  2.000E+04 -1.200E-01
   1   14    3     1     3    1.0382E+05 -2.8884E+02   1.0411E+05  0.000E+00  0.000E+00  0.000E+00  4.74549E+01  1.481E-01  2.000E+01  2.000E+04 -1.444E-02
   1   15    4     1     4    1.0411E+05 -1.6399E+02   1.0427E+05  0.000E+00  0.000E+00  0.000E+00  4.69778E+01  1.483E-01  2.000E+01  2.000E+04 -8.200E-03
   1   16    5     1     5    1.0427E+05  6.4499E+02   1.0362E+05  0.000E+00  0.000E+00  0.000E+00  4.65003E+01  1.481E-01  2.000E+01  2.000E+04  3.225E-02
   1   16    6     1     6    1.0362E+05  4.7871E+02   1.0315E+05  0.000E+00  0.000E+00  0.000E+00  4.60226E+01  1.476E-01  2.000E+01  2.000E+04  2.394E-02
   1   16    7     1     7    1.0315E+05  2.4794E+02   1.0290E+05  0.000E+00  0.000E+00  0.000E+00  4.55450E+01  1.473E-01  2.000E+01  2.000E+04  1.240E-02
   1   16    8     1     8    1.0290E+05 -9.3719E+00   1.0291E+05  0.000E+00  0.000E+00  0.000E+00  4.50676E+01  1.472E-01  2.000E+01  2.000E+04 -4.686E-04
   1   16    9     1     9    1.0291E+05 -2.0005E+02   1.0311E+05  0.000E+00  0.000E+00  0.000E+00  4.45904E+01  1.472E-01  2.000E+01  2.000E+04 -1.000E-02
   1   16   10     1    10    1.0311E+05 -3.1257E+02   1.0342E+05  0.000E+00  0.000E+00  0.000E+00  4.41134E+01  1.475E-01  2.000E+01  2.000E+04 -1.563E-02
   1   16   11     1    11    1.0342E+05 -3.6671E+02   1.0379E+05  0.000E+00  0.000E+00  0.000E+00  4.36364E+01  1.478E-01  2.000E+01  2.000E+04 -1.834E-02
   1   16   12     1    12    1.0379E+05 -7.4048E+02   1.0453E+05  0.000E+00  0.000E+00  0.000E+00  4.31596E+01  1.482E-01  2.000E+01  2.000E+04 -3.702E-02
   1   15   13     1    13    1.0453E+05 -9.1421E+02   1.0544E+05  0.000E+00  0.000E+00  0.000E+00  4.26830E+01  1.489E-01  2.000E+01  2.000E+04 -4.571E-02
   1   14   14     1    14    1.0544E+05 -1.2593E+03   1.0670E+05  0.000E+00  0.000E+00  0.000E+00  4.22067E+01  1.499E-01  2.000E+01  2.000E+04 -6.297E-02
   1   13   15     1    15    1.0670E+05 -1.5722E+03   1.0827E+05  0.000E+00  0.000E+00  0.000E+00  4.17306E+01  1.511E-01  2.000E+01  2.000E+04 -7.861E-02
   1   12   16     1    16    1.0827E+05 -2.0234E+03   1.1030E+05  0.000E+00  0.000E+00  0.000E+00  4.12548E+01  1.526E-01  2.000E+01  2.000E+04 -1.012E-01
   1   12   17     1    17    1.1030E+05 -1.0364E+03   1.1133E+05  0.000E+00  0.000E+00  0.000E+00  4.07788E+01  1.538E-01  2.000E+01  2.000E+04 -5.182E-02
   1   12   18     1    18    1.1133E+05 -7.3351E+02   1.1207E+05  0.000E+00  0.000E+00  0.000E+00  4.03023E+01  1.546E-01  2.000E+01  2.000E+04 -3.668E-02
   1   12   19     1    19    1.1207E+05 -3.7696E+02   1.1244E+05  0.000E+00  0.000E+00  0.000E+00  3.98255E+01  1.550E-01  2.000E+01  2.000E+04 -1.885E-02
   1   13   20     1    20    1.1244E+05 -2.9812E+02   1.1274E+05  0.000E+00  0.000E+00  0.000E+00  3.93485E+01  1.553E-01  2.000E+01  2.000E+04 -1.491E-02
   1   14   21     1    21    1.1274E+05 -5.2436E+02   1.1327E+05  0.000E+00  0.000E+00  0.000E+00  3.88716E+01  1.557E-01  2.000E+01  2.000E+04 -2.622E-02
   1   14   22     1    22    1.1327E+05  5.1923E+03   1.0807E+05  0.000E+00  0.000E+00  0.000E+00  3.83924E+01  1.537E-01  2.000E+01  2.000E+04  2.596E-01
   1    9   30     2     1    5.0000E+04  4.8674E+02   4.9513E+04  0.000E+00  0.000E+00  0.000E+00  4.02405E+01  1.155E-01  2.000E+01  2.000E+04  2.434E-02
   1    9   29     2     2    4.9513E+04  2.8346E+02   4.9230E+04  0.000E+00  0.000E+00  0.000E+00  3.99900E+01  1.150E-01  2.000E+01  2.000E+04  1.417E-02
   1    9   28     2     3    4.9230E+04  2.6248E+02   4.8967E+04  0.000E+00  0.000E+00  0.000E+00  3.97396E+01  1.146E-01  2.000E+01  2.000E+04  1.312E-02
   1    9   27     2     4    4.8967E+04  3.7572E+02   4.8592E+04  0.000E+00  0.000E+00  0.000E+00  3.94892E+01  1.142E-01  2.000E+01  2.000E+04  1.879E-02
   1   10   26     2     5    4.8592E+04  4.7750E+02   4.8114E+04  0.000E+00  0.000E+00  0.000E+00  3.92386E+01  1.136E-01  2.000E+01  2.000E+04  2.388E-02
   1   11   25     2     6    4.8114E+04  3.7784E+02   4.7736E+04  0.000E+00  0.000E+00  0.000E+00  3.89880E+01  1.130E-01  2.000E+01  2.000E+04  1.889E-02
   1   12   24     2     7    4.7736E+04  1.7181E+02   4.7564E+04  0.000E+00  0.000E+00  0.000E+00  3.87376E+01  1.126E-01  2.000E+01  2.000E+04  8.590E-03
   1   13   23     2     8    4.7564E+04  3.6386E+01   4.7528E+04  0.000E+00  0.000E+00  0.000E+00  3.84874E+01  1.124E-01  2.000E+01  2.000E+04  1.819E-03
   1   14   22     2     9    4.7528E+04  2.0636E+03   4.5464E+04  0.000E+00  0.000E+00  0.000E+00  3.82359E+01  1.109E-01  2.000E+01  2.000E+04  1.032E-01
   1   14   22     3     1    1.5354E+05 -8.3882E+03   1.6193E+05  0.000E+00  0.000E+00  0.000E+00  3.77133E+01  1.578E-01  2.000E+01  2.000E+04 -4.194E-01
   1   15   23     3     2    1.6193E+05 -3.5947E+02   1.6229E+05  0.000E+00  0.000E+00  0.000E+00  3.68271E+01  1.604E-01  2.000E+01  2.000E+04 -1.797E-02
   1   15   24     3     3    1.6229E+05 -1.8635E+02   1.6247E+05  0.000E+00  0.000E+00  0.000E+00  3.59383E+01  1.606E-01  2.000E+01  2.000E+04 -9.317E-03
   1   15   25     3     4    1.6247E+05 -1.8896E+02   1.6266E+05  0.000E+00  0.000E+00  0.000E+00  3.50496E+01  1.607E-01  2.000E+01  2.000E+04 -9.448E-03
   1   15   26     3     5    1.6266E+05 -2.4390E+02   1.6290E+05  0.000E+00  0.000E+00  0.000E+00  3.41608E+01  1.608E-01  2.000E+01  2.000E+04 -1.220E-02
   1   16   27     3     6    1.6290E+05 -2.5700E+02   1.6316E+05  0.000E+00  0.000E+00  0.000E+00  3.32721E+01  1.609E-01  2.000E+01  2.000E+04 -1.285E-02
   1   17   28     3     7    1.6316E+05 -1.2282E+03   1.6439E+05  0.000E+00  0.000E+00  0.000E+00  3.23836E+01  1.614E-01  2.000E+01  2.000E+04 -6.141E-02
   1   18   29     3     8    1.6439E+05 -2.4573E+03   1.6685E+05  0.000E+00  0.000E+00  0.000E+00  3.14958E+01  1.625E-01  2.000E+01  2.000E+04 -1.229E-01
   1   18   30     3     9    1.6685E+05 -2.8659E+03   1.6971E+05  0.000E+00  0.000E+00  0.000E+00  3.06085E+01  1.640E-01  2.000E+01  2.000E+04 -1.433E-01



1
              HEAD IN LAYER   1 AT END OF TIME STEP   1 IN STRESS PERIOD    7
  ---------------------------------------------------------------------------

          1      2      3      4      5      6      7      8      9     10
         11     12     13     14     15     16     17     18     19     20
         21     22     23     24     25     26     27     28     29     30
 .........................................................................
   1  ****** ****** ****** ****** ****** ****** ****** ****** ****** ******
      ****** ****** ****** ****** ****** ****** ****** ****** ****** ******
      ****** ****** ****** ****** ****** ****** ****** ****** ****** ******
   2  ****** ****** ****** ****** ****** ****** ****** ****** ****** ******
      ****** ****** ****** ****** ****** ****** ****** ****** ****** ******
      ****** ****** ****** ****** ****** ****** ****** ****** ****** ******
   3  ****** ****** ****** ****** ****** ****** ****** ****** ****** ******
      ****** ****** ****** ****** ****** ****** ****** ****** ****** ******
      ****** ****** ****** ****** ****** ****** ****** ****** ****** ******
   4  ****** ****** ****** ****** ****** ****** ****** ****** ****** ******
      ****** ****** ****** ****** ****** ****** ****** ****** ****** ******
      ****** ****** ****** ****** ****** ****** ****** ****** ****** ******
   5  ****** ****** ****** ****** ****** ****** ****** ****** ****** ******
      ****** ****** ****** ****** ****** ****** ****** ****** ****** ******
      ****** ****** ****** ****** ****** ****** ****** ****** ****** ******
   6  ****** ****** ****** ****** ****** ****** ****** ****** ****** ******
      ****** ****** ****** ****** ****** ****** ****** ****** ****** ******
      ****** ****** ****** ****** ****** ****** ****** ****** ****** ******
   7  ****** ****** ****** ****** ****** ****** ****** ****** ****** ******
      ****** ****** ****** ****** ****** ****** ****** ****** ****** ******
      ****** ****** ****** ****** ****** ****** ****** ****** ****** ******
   8  ****** ****** ****** ****** ****** ****** ****** ****** ****** ******
      ****** ****** ****** ****** ****** ****** ****** ****** ****** ******
      ****** ****** ****** ****** ****** ****** ****** ****** ****** ******
   9  ****** ****** ****** ****** ****** ****** ****** ****** ****** ******
      ****** ****** ****** ****** ****** ****** ****** ****** ****** ******
      ****** ****** ****** ****** ****** ****** ****** ****** ****** ******
  10  ****** ****** ****** ****** ****** ****** ****** ****** ****** ******
      ****** ****** ****** ****** ****** ****** ****** ****** ****** ******
      ****** ****** ****** ****** ****** ****** ****** ****** ****** ******
  11  ****** ****** ****** ****** ****** ****** ****** ****** ****** ******
      ****** ****** ****** ****** ****** ****** ****** ****** ****** ******
      ****** ****** ****** ****** ****** ****** ****** ****** ****** ******
  12  ****** ****** ****** ****** ****** ****** ****** ****** ****** ******
      ****** ****** ****** ****** ****** ****** ****** ****** ****** ******
      ****** ****** ****** ****** ****** ****** ****** ****** ****** ******
  13  ****** ****** ****** ****** ****** ****** ****** ****** ****** ******
      ****** ****** ****** ****** ****** ****** ****** ****** ****** ******
      ****** ****** ****** ****** ****** ****** ****** ****** ****** ******
  14  ****** ****** ****** ****** ****** ****** ****** ****** ****** ******
      ****** ****** ****** ****** ****** ****** ****** ****** ****** ******
      ****** ****** ****** ****** ****** ****** ****** ****** ****** ******
  15  ****** ****** ****** ****** ****** ****** ****** ****** ****** ******
      ****** ****** ****** ****** ****** ****** ****** ****** ****** ******
      ****** ****** ****** ****** ****** ****** ****** ****** ****** ******
  16  ****** ****** ****** ****** ****** ****** ****** ****** ****** ******
      ****** ****** ****** ****** ****** ****** ****** ****** ****** ******
      ****** ****** ****** ****** ****** ****** ****** ****** ****** ******
  17  ****** ****** ****** ****** ****** ****** ****** ****** ****** ******
      ****** ****** ****** ****** ****** ****** ****** ****** ****** ******
      ****** ****** ****** ****** ****** ****** ****** ****** ****** ******
  18  ****** ****** ****** ****** ****** ****** ****** ****** ****** ******
      ****** ****** ****** ****** ****** ****** ****** ****** ****** ******
      ****** ****** ****** ****** ****** ****** ****** ****** ****** ******
  19  ****** ****** ****** ****** ****** ****** ****** ****** ****** ******
      ****** ****** ****** ****** ****** ****** ****** ****** ****** ******
      ****** ****** ****** ****** ****** ****** ****** ****** ****** ******
  20  ****** ****** ****** ****** ****** ****** ****** ****** ****** ******
      ****** ****** ****** ****** ****** ****** ****** ****** ****** ******
      ****** ****** ****** ****** ****** ****** ****** ****** ****** ******
  21  ****** ****** ****** ****** ****** ****** ****** ****** ****** ******
      ****** ****** ****** ****** ****** ****** ****** ****** ****** ******
      ****** ****** ****** ****** ****** ****** ****** ****** ****** ******
  22  ****** ****** ****** ****** ****** ****** ****** ****** ****** ******
      ****** ****** ****** ****** ****** ****** ****** ****** ****** ******
      ****** ****** ****** ****** ****** ****** ****** ****** ****** ******
  23  ****** ****** ****** ****** ****** ****** ****** ****** ****** ******
      ****** ****** ****** ****** ****** ****** ****** ****** ****** ******
      ****** ****** ****** ****** ****** ****** ****** ****** ****** ******
  24  ****** ****** ****** ****** ****** ****** ****** ****** ****** ******
      ****** ****** ****** ****** ****** ****** ****** ****** ****** ******
      ****** ****** ****** ****** ****** ****** ****** ****** ****** ******
  25  ****** ****** ****** ****** ****** ****** ****** ****** ****** ******
      ****** ****** ****** ****** ****** ****** ****** ****** ****** ******
      ****** ****** ****** ****** ****** ****** ****** ****** ****** ******

 HEAD WILL BE SAVED ON UNIT   51 AT END OF TIME STEP    1, STRESS PERIOD    7
1
  VOLUMETRIC BUDGET FOR ENTIRE MODEL AT END OF TIME STEP    1, STRESS PERIOD   7
  ------------------------------------------------------------------------------

     CUMULATIVE VOLUMES      L**3       RATES FOR THIS TIME STEP      L**3/T
     ------------------                 ------------------------

           IN:                                      IN:
           ---                                      ---
             STORAGE =    34558857.6763               STORAGE =       22544.4822
       CONSTANT HEAD =    17833634.6105         CONSTANT HEAD =       36385.1705
               WELLS =           0.0000                 WELLS =           0.0000
            RECHARGE =    15097200.0000              RECHARGE =           0.0000
      STREAM LEAKAGE =     4603558.6647        STREAM LEAKAGE =       11099.4694

            TOTAL IN =    72093250.9515              TOTAL IN =       70029.1221

          OUT:                                     OUT:
          ----                                     ----
             STORAGE =      770034.7050               STORAGE =           0.0000
       CONSTANT HEAD =           0.0000         CONSTANT HEAD =           0.0000
               WELLS =    25059536.2854                 WELLS =       39216.8017
            RECHARGE =           0.0000              RECHARGE =           0.0000
      STREAM LEAKAGE =    46263682.6955        STREAM LEAKAGE =       30812.3262

           TOTAL OUT =    72093253.6860             TOTAL OUT =       70029.1279

            IN - OUT =          -2.7345              IN - OUT =      -5.8407E-03

 PERCENT DISCREPANCY =          -0.00     PERCENT DISCREPANCY =          -0.00






         TIME SUMMARY AT END OF TIME STEP    1 IN STRESS PERIOD    7
                    SECONDS     MINUTES      HOURS       DAYS        YEARS
                    -----------------------------------------------------------
   TIME STEP LENGTH 7.86240E+06 1.31040E+05  2184.0      91.000     0.24914    
 STRESS PERIOD TIME 7.86240E+06 1.31040E+05  2184.0      91.000     0.24914    
         TOTAL TIME 5.52096E+07 9.20160E+05  15336.      639.00      1.7495    
1
1
                            STRESS PERIOD NO.    8, LENGTH =   91.00000    
                            -----------------------------------------------

                              NUMBER OF TIME STEPS =     1

                               MULTIPLIER FOR DELT =     1.500

                            INITIAL TIME STEP SIZE =   91.00000    

 WELL NO.  LAYER   ROW   COL   STRESS RATE         
 --------------------------------------------------
      1      1      9     21      -9430.    
      2      1      5     25     -0.1289E+05
      3      1     22     18      -7019.    
      4      1     19      6      -9882.    

      4 WELLS

                 RECHARGE =  1.000000E-03

 REUSING STREAM SEGMENT DATA FROM LAST STRESS PERIOD
 
 SOLVING FOR HEAD 


     6 CALLS TO PCG ROUTINE FOR TIME STEP   1 IN STRESS PERIOD    8
    22 TOTAL ITERATIONS

 OUTPUT CONTROL FOR STRESS PERIOD    8   TIME STEP    1
    SAVE BUDGET
    SAVE HEAD FOR ALL LAYERS
    PRINT HEAD FOR ALL LAYERS
 UBDSV2 SAVING "STREAMFLOW OUT  " ON UNIT  50 AT TIME STEP  1, STRESS PERIOD   8



 STREAM LISTING     PERIOD      8   STEP        1

 LAYER ROW COL. STREAM  RCH.  FLOW INTO     FLOW TO   FLOW OUT OF   OVRLND.     DIRECT     STREAM       STREAM     STREAM     STREAM   STREAMBED  STREAMBED
                SEG.NO.  NO.  STRM. RCH.    AQUIFER    STRM. RCH.    RUNOFF     PRECIP       ET          HEAD       DEPTH      WIDTH   CONDCTNC.   GRADIENT

   1   13    1     1     1    1.0000E+05 -1.4885E+03   1.0149E+05  0.000E+00  0.000E+00  0.000E+00  4.84067E+01  1.453E-01  2.000E+01  2.000E+04 -7.442E-02
   1   13    2     1     2    1.0149E+05 -2.4729E+03   1.0396E+05  0.000E+00  0.000E+00  0.000E+00  4.79311E+01  1.470E-01  2.000E+01  2.000E+04 -1.236E-01
   1   14    3     1     3    1.0396E+05 -3.5254E+02   1.0431E+05  0.000E+00  0.000E+00  0.000E+00  4.74550E+01  1.482E-01  2.000E+01  2.000E+04 -1.763E-02
   1   15    4     1     4    1.0431E+05 -2.3209E+02   1.0455E+05  0.000E+00  0.000E+00  0.000E+00  4.69780E+01  1.485E-01  2.000E+01  2.000E+04 -1.160E-02
   1   16    5     1     5    1.0455E+05  4.7606E+02   1.0407E+05  0.000E+00  0.000E+00  0.000E+00  4.65006E+01  1.484E-01  2.000E+01  2.000E+04  2.380E-02
   1   16    6     1     6    1.0407E+05  3.7407E+02   1.0370E+05  0.000E+00  0.000E+00  0.000E+00  4.60230E+01  1.480E-01  2.000E+01  2.000E+04  1.870E-02
   1   16    7     1     7    1.0370E+05  1.4804E+02   1.0355E+05  0.000E+00  0.000E+00  0.000E+00  4.55455E+01  1.478E-01  2.000E+01  2.000E+04  7.402E-03
   1   16    8     1     8    1.0355E+05 -1.0854E+02   1.0366E+05  0.000E+00  0.000E+00  0.000E+00  4.50682E+01  1.478E-01  2.000E+01  2.000E+04 -5.427E-03
   1   16    9     1     9    1.0366E+05 -3.0041E+02   1.0396E+05  0.000E+00  0.000E+00  0.000E+00  4.45911E+01  1.479E-01  2.000E+01  2.000E+04 -1.502E-02
   1   16   10     1    10    1.0396E+05 -4.1541E+02   1.0437E+05  0.000E+00  0.000E+00  0.000E+00  4.41141E+01  1.482E-01  2.000E+01  2.000E+04 -2.077E-02
   1   16   11     1    11    1.0437E+05 -4.7249E+02   1.0484E+05  0.000E+00  0.000E+00  0.000E+00  4.36373E+01  1.486E-01  2.000E+01  2.000E+04 -2.362E-02
   1   16   12     1    12    1.0484E+05 -8.9817E+02   1.0574E+05  0.000E+00  0.000E+00  0.000E+00  4.31606E+01  1.492E-01  2.000E+01  2.000E+04 -4.491E-02
   1   15   13     1    13    1.0574E+05 -1.0794E+03   1.0682E+05  0.000E+00  0.000E+00  0.000E+00  4.26841E+01  1.500E-01  2.000E+01  2.000E+04 -5.397E-02
   1   14   14     1    14    1.0682E+05 -1.4175E+03   1.0824E+05  0.000E+00  0.000E+00  0.000E+00  4.22079E+01  1.511E-01  2.000E+01  2.000E+04 -7.088E-02
   1   13   15     1    15    1.0824E+05 -1.7173E+03   1.0996E+05  0.000E+00  0.000E+00  0.000E+00  4.17320E+01  1.524E-01  2.000E+01  2.000E+04 -8.587E-02
   1   12   16     1    16    1.0996E+05 -2.1298E+03   1.1209E+05  0.000E+00  0.000E+00  0.000E+00  4.12563E+01  1.540E-01  2.000E+01  2.000E+04 -1.065E-01
   1   12   17     1    17    1.1209E+05 -1.1444E+03   1.1323E+05  0.000E+00  0.000E+00  0.000E+00  4.07804E+01  1.554E-01  2.000E+01  2.000E+04 -5.722E-02
   1   12   18     1    18    1.1323E+05 -8.4833E+02   1.1408E+05  0.000E+00  0.000E+00  0.000E+00  4.03039E+01  1.562E-01  2.000E+01  2.000E+04 -4.242E-02
   1   12   19     1    19    1.1408E+05 -5.2173E+02   1.1460E+05  0.000E+00  0.000E+00  0.000E+00  3.98272E+01  1.568E-01  2.000E+01  2.000E+04 -2.609E-02
   1   13   20     1    20    1.1460E+05 -4.7308E+02   1.1507E+05  0.000E+00  0.000E+00  0.000E+00  3.93504E+01  1.572E-01  2.000E+01  2.000E+04 -2.365E-02
   1   14   21     1    21    1.1507E+05 -6.7964E+02   1.1575E+05  0.000E+00  0.000E+00  0.000E+00  3.88736E+01  1.576E-01  2.000E+01  2.000E+04 -3.398E-02
   1   14   22     1    22    1.1575E+05  5.1447E+03   1.1061E+05  0.000E+00  0.000E+00  0.000E+00  3.83944E+01  1.558E-01  2.000E+01  2.000E+04  2.572E-01
   1    9   30     2     1    5.0000E+04  3.2571E+02   4.9674E+04  0.000E+00  0.000E+00  0.000E+00  4.02406E+01  1.156E-01  2.000E+01  2.000E+04  1.629E-02
   1    9   29     2     2    4.9674E+04  1.2530E+02   4.9549E+04  0.000E+00  0.000E+00  0.000E+00  3.99903E+01  1.153E-01  2.000E+01  2.000E+04  6.265E-03
   1    9   28     2     3    4.9549E+04  1.1014E+02   4.9439E+04  0.000E+00  0.000E+00  0.000E+00  3.97402E+01  1.152E-01  2.000E+01  2.000E+04  5.507E-03
   1    9   27     2     4    4.9439E+04  2.0224E+02   4.9237E+04  0.000E+00  0.000E+00  0.000E+00  3.94899E+01  1.149E-01  2.000E+01  2.000E+04  1.011E-02
   1   10   26     2     5    4.9237E+04  2.7566E+02   4.8961E+04  0.000E+00  0.000E+00  0.000E+00  3.92396E+01  1.146E-01  2.000E+01  2.000E+04  1.378E-02
   1   11   25     2     6    4.8961E+04  1.7701E+02   4.8784E+04  0.000E+00  0.000E+00  0.000E+00  3.89893E+01  1.143E-01  2.000E+01  2.000E+04  8.851E-03
   1   12   24     2     7    4.8784E+04 -1.0436E+01   4.8794E+04  0.000E+00  0.000E+00  0.000E+00  3.87392E+01  1.142E-01  2.000E+01  2.000E+04 -5.218E-04
   1   13   23     2     8    4.8794E+04 -3.7469E+01   4.8832E+04  0.000E+00  0.000E+00  0.000E+00  3.84892E+01  1.142E-01  2.000E+01  2.000E+04 -1.873E-03
   1   14   22     2     9    4.8832E+04  2.0121E+03   4.6820E+04  0.000E+00  0.000E+00  0.000E+00  3.82378E+01  1.128E-01  2.000E+01  2.000E+04  1.006E-01
   1   14   22     3     1    1.5743E+05 -8.4307E+03   1.6586E+05  0.000E+00  0.000E+00  0.000E+00  3.77157E+01  1.601E-01  2.000E+01  2.000E+04 -4.215E-01
   1   15   23     3     2    1.6586E+05 -4.2302E+02   1.6628E+05  0.000E+00  0.000E+00  0.000E+00  3.68294E+01  1.627E-01  2.000E+01  2.000E+04 -2.115E-02
   1   15   24     3     3    1.6628E+05 -2.4652E+02   1.6653E+05  0.000E+00  0.000E+00  0.000E+00  3.59407E+01  1.629E-01  2.000E+01  2.000E+04 -1.233E-02
   1   15   25     3     4    1.6653E+05 -2.5091E+02   1.6678E+05  0.000E+00  0.000E+00  0.000E+00  3.50520E+01  1.631E-01  2.000E+01  2.000E+04 -1.255E-02
   1   15   26     3     5    1.6678E+05 -3.1837E+02   1.6710E+05  0.000E+00  0.000E+00  0.000E+00  3.41632E+01  1.632E-01  2.000E+01  2.000E+04 -1.592E-02
   1   16   27     3     6    1.6710E+05 -3.3849E+02   1.6744E+05  0.000E+00  0.000E+00  0.000E+00  3.32745E+01  1.634E-01  2.000E+01  2.000E+04 -1.692E-02
   1   17   28     3     7    1.6744E+05 -1.4308E+03   1.6887E+05  0.000E+00  0.000E+00  0.000E+00  3.23862E+01  1.640E-01  2.000E+01  2.000E+04 -7.154E-02
   1   18   29     3     8    1.6887E+05 -2.6202E+03   1.7149E+05  0.000E+00  0.000E+00  0.000E+00  3.14985E+01  1.651E-01  2.000E+01  2.000E+04 -1.310E-01
   1   18   30     3     9    1.7149E+05 -3.0111E+03   1.7450E+05  0.000E+00  0.000E+00  0.000E+00  3.06112E+01  1.668E-01  2.000E+01  2.000E+04 -1.506E-01



1
              HEAD IN LAYER   1 AT END OF TIME STEP   1 IN STRESS PERIOD    8
  ---------------------------------------------------------------------------

          1      2      3      4      5      6      7      8      9     10
         11     12     13     14     15     16     17     18     19     20
         21     22     23     24     25     26     27     28     29     30
 .........................................................................
   1  ****** ****** ****** ****** ****** ****** ****** ****** ****** ******
      ****** ****** ****** ****** ****** ****** ****** ****** ****** ******
      ****** ****** ****** ****** ****** ****** ****** ****** ****** ******
   2  ****** ****** ****** ****** ****** ****** ****** ****** ****** ******
      ****** ****** ****** ****** ****** ****** ****** ****** ****** ******
      ****** ****** ****** ****** ****** ****** ****** ****** ****** ******
   3  ****** ****** ****** ****** ****** ****** ****** ****** ****** ******
      ****** ****** ****** ****** ****** ****** ****** ****** ****** ******
      ****** ****** ****** ****** ****** ****** ****** ****** ****** ******
   4  ****** ****** ****** ****** ****** ****** ****** ****** ****** ******
      ****** ****** ****** ****** ****** ****** ****** ****** ****** ******
      ****** ****** ****** ****** ****** ****** ****** ****** ****** ******
   5  ****** ****** ****** ****** ****** ****** ****** ****** ****** ******
      ****** ****** ****** ****** ****** ****** ****** ****** ****** ******
      ****** ****** ****** ****** ****** ****** ****** ****** ****** ******
   6  ****** ****** ****** ****** ****** ****** ****** ****** ****** ******
      ****** ****** ****** ****** ****** ****** ****** ****** ****** ******
      ****** ****** ****** ****** ****** ****** ****** ****** ****** ******
   7  ****** ****** ****** ****** ****** ****** ****** ****** ****** ******
      ****** ****** ****** ****** ****** ****** ****** ****** ****** ******
      ****** ****** ****** ****** ****** ****** ****** ****** ****** ******
   8  ****** ****** ****** ****** ****** ****** ****** ****** ****** ******
      ****** ****** ****** ****** ****** ****** ****** ****** ****** ******
      ****** ****** ****** ****** ****** ****** ****** ****** ****** ******
   9  ****** ****** ****** ****** ****** ****** ****** ****** ****** ******
      ****** ****** ****** ****** ****** ****** ****** ****** ****** ******
      ****** ****** ****** ****** ****** ****** ****** ****** ****** ******
  10  ****** ****** ****** ****** ****** ****** ****** ****** ****** ******
      ****** ****** ****** ****** ****** ****** ****** ****** ****** ******
      ****** ****** ****** ****** ****** ****** ****** ****** ****** ******
  11  ****** ****** ****** ****** ****** ****** ****** ****** ****** ******
      ****** ****** ****** ****** ****** ****** ****** ****** ****** ******
      ****** ****** ****** ****** ****** ****** ****** ****** ****** ******
  12  ****** ****** ****** ****** ****** ****** ****** ****** ****** ******
      ****** ****** ****** ****** ****** ****** ****** ****** ****** ******
      ****** ****** ****** ****** ****** ****** ****** ****** ****** ******
  13  ****** ****** ****** ****** ****** ****** ****** ****** ****** ******
      ****** ****** ****** ****** ****** ****** ****** ****** ****** ******
      ****** ****** ****** ****** ****** ****** ****** ****** ****** ******
  14  ****** ****** ****** ****** ****** ****** ****** ****** ****** ******
      ****** ****** ****** ****** ****** ****** ****** ****** ****** ******
      ****** ****** ****** ****** ****** ****** ****** ****** ****** ******
  15  ****** ****** ****** ****** ****** ****** ****** ****** ****** ******
      ****** ****** ****** ****** ****** ****** ****** ****** ****** ******
      ****** ****** ****** ****** ****** ****** ****** ****** ****** ******
  16  ****** ****** ****** ****** ****** ****** ****** ****** ****** ******
      ****** ****** ****** ****** ****** ****** ****** ****** ****** ******
      ****** ****** ****** ****** ****** ****** ****** ****** ****** ******
  17  ****** ****** ****** ****** ****** ****** ****** ****** ****** ******
      ****** ****** ****** ****** ****** ****** ****** ****** ****** ******
      ****** ****** ****** ****** ****** ****** ****** ****** ****** ******
  18  ****** ****** ****** ****** ****** ****** ****** ****** ****** ******
      ****** ****** ****** ****** ****** ****** ****** ****** ****** ******
      ****** ****** ****** ****** ****** ****** ****** ****** ****** ******
  19  ****** ****** ****** ****** ****** ****** ****** ****** ****** ******
      ****** ****** ****** ****** ****** ****** ****** ****** ****** ******
      ****** ****** ****** ****** ****** ****** ****** ****** ****** ******
  20  ****** ****** ****** ****** ****** ****** ****** ****** ****** ******
      ****** ****** ****** ****** ****** ****** ****** ****** ****** ******
      ****** ****** ****** ****** ****** ****** ****** ****** ****** ******
  21  ****** ****** ****** ****** ****** ****** ****** ****** ****** ******
      ****** ****** ****** ****** ****** ****** ****** ****** ****** ******
      ****** ****** ****** ****** ****** ****** ****** ****** ****** ******
  22  ****** ****** ****** ****** ****** ****** ****** ****** ****** ******
      ****** ****** ****** ****** ****** ****** ****** ****** ****** ******
      ****** ****** ****** ****** ****** ****** ****** ****** ****** ******
  23  ****** ****** ****** ****** ****** ****** ****** ****** ****** ******
      ****** ****** ****** ****** ****** ****** ****** ****** ****** ******
      ****** ****** ****** ****** ****** ****** ****** ****** ****** ******
  24  ****** ****** ****** ****** ****** ****** ****** ****** ****** ******
      ****** ****** ****** ****** ****** ****** ****** ****** ****** ******
      ****** ****** ****** ****** ****** ****** ****** ****** ****** ******
  25  ****** ****** ****** ****** ****** ****** ****** ****** ****** ******
      ****** ****** ****** ****** ****** ****** ****** ****** ****** ******
      ****** ****** ****** ****** ****** ****** ****** ****** ****** ******

 HEAD WILL BE SAVED ON UNIT   51 AT END OF TIME STEP    1, STRESS PERIOD    8
1
  VOLUMETRIC BUDGET FOR ENTIRE MODEL AT END OF TIME STEP    1, STRESS PERIOD   8
  ------------------------------------------------------------------------------

     CUMULATIVE VOLUMES      L**3       RATES FOR THIS TIME STEP      L**3/T
     ------------------                 ------------------------

           IN:                                      IN:
           ---                                      ---
             STORAGE =    34693690.7680               STORAGE =        1481.6823
       CONSTANT HEAD =    21119739.5950         CONSTANT HEAD =       36111.0438
               WELLS =           0.0000                 WELLS =           0.0000
            RECHARGE =    17608800.0000              RECHARGE =       27600.0000
      STREAM LEAKAGE =     5456324.9136        STREAM LEAKAGE =        9371.0577

            TOTAL IN =    78878555.2766              TOTAL IN =       74563.7838

          OUT:                                     OUT:
          ----                                     ----
             STORAGE =      904415.6245               STORAGE =        1476.7134
       CONSTANT HEAD =           0.0000         CONSTANT HEAD =           0.0000
               WELLS =    28628265.2400                 WELLS =       39216.8017
            RECHARGE =           0.0000              RECHARGE =           0.0000
      STREAM LEAKAGE =    49345876.3794        STREAM LEAKAGE =       33870.2603

           TOTAL OUT =    78878557.2439             TOTAL OUT =       74563.7754

            IN - OUT =          -1.9672              IN - OUT =       8.4312E-03

 PERCENT DISCREPANCY =          -0.00     PERCENT DISCREPANCY =           0.00






         TIME SUMMARY AT END OF TIME STEP    1 IN STRESS PERIOD    8
                    SECONDS     MINUTES      HOURS       DAYS        YEARS
                    -----------------------------------------------------------
   TIME STEP LENGTH 7.86240E+06 1.31040E+05  2184.0      91.000     0.24914    
 STRESS PERIOD TIME 7.86240E+06 1.31040E+05  2184.0      91.000     0.24914    
         TOTAL TIME 6.30720E+07 1.05120E+06  17520.      730.00      1.9986    
1
1
                            STRESS PERIOD NO.    9, LENGTH =   92.00000    
                            -----------------------------------------------

                              NUMBER OF TIME STEPS =     1

                               MULTIPLIER FOR DELT =     1.500

                            INITIAL TIME STEP SIZE =   92.00000    

 WELL NO.  LAYER   ROW   COL   STRESS RATE         
 --------------------------------------------------
      1      1      9     21      -9430.    
      2      1      5     25     -0.1289E+05
      3      1     22     18      -7019.    
      4      1     19      6      -9882.    

      4 WELLS

                 RECHARGE =  5.000000E-04

 REUSING STREAM SEGMENT DATA FROM LAST STRESS PERIOD
 
 SOLVING FOR HEAD 


     6 CALLS TO PCG ROUTINE FOR TIME STEP   1 IN STRESS PERIOD    9
    23 TOTAL ITERATIONS

 OUTPUT CONTROL FOR STRESS PERIOD    9   TIME STEP    1
    SAVE BUDGET
    SAVE HEAD FOR ALL LAYERS
    PRINT HEAD FOR ALL LAYERS
 UBDSV2 SAVING "STREAMFLOW OUT  " ON UNIT  50 AT TIME STEP  1, STRESS PERIOD   9



 STREAM LISTING     PERIOD      9   STEP        1

 LAYER ROW COL. STREAM  RCH.  FLOW INTO     FLOW TO   FLOW OUT OF   OVRLND.     DIRECT     STREAM       STREAM     STREAM     STREAM   STREAMBED  STREAMBED
                SEG.NO.  NO.  STRM. RCH.    AQUIFER    STRM. RCH.    RUNOFF     PRECIP       ET          HEAD       DEPTH      WIDTH   CONDCTNC.   GRADIENT

   1   13    1     1     1    1.0000E+05 -1.2736E+03   1.0127E+05  0.000E+00  0.000E+00  0.000E+00  4.84066E+01  1.452E-01  2.000E+01  2.000E+04 -6.368E-02
   1   13    2     1     2    1.0127E+05 -2.2297E+03   1.0350E+05  0.000E+00  0.000E+00  0.000E+00  4.79308E+01  1.467E-01  2.000E+01  2.000E+04 -1.115E-01
   1   14    3     1     3    1.0350E+05 -2.8156E+02   1.0378E+05  0.000E+00  0.000E+00  0.000E+00  4.74546E+01  1.478E-01  2.000E+01  2.000E+04 -1.408E-02
   1   15    4     1     4    1.0378E+05 -1.5998E+02   1.0394E+05  0.000E+00  0.000E+00  0.000E+00  4.69775E+01  1.480E-01  2.000E+01  2.000E+04 -7.999E-03
   1   16    5     1     5    1.0394E+05  6.7086E+02   1.0327E+05  0.000E+00  0.000E+00  0.000E+00  4.65000E+01  1.478E-01  2.000E+01  2.000E+04  3.354E-02
   1   16    6     1     6    1.0327E+05  4.9513E+02   1.0278E+05  0.000E+00  0.000E+00  0.000E+00  4.60223E+01  1.473E-01  2.000E+01  2.000E+04  2.476E-02
   1   16    7     1     7    1.0278E+05  2.6525E+02   1.0251E+05  0.000E+00  0.000E+00  0.000E+00  4.55447E+01  1.469E-01  2.000E+01  2.000E+04  1.326E-02
   1   16    8     1     8    1.0251E+05  7.0929E+00   1.0251E+05  0.000E+00  0.000E+00  0.000E+00  4.50673E+01  1.468E-01  2.000E+01  2.000E+04  3.546E-04
   1   16    9     1     9    1.0251E+05 -1.8639E+02   1.0269E+05  0.000E+00  0.000E+00  0.000E+00  4.45901E+01  1.469E-01  2.000E+01  2.000E+04 -9.320E-03
   1   16   10     1    10    1.0269E+05 -3.0339E+02   1.0300E+05  0.000E+00  0.000E+00  0.000E+00  4.41130E+01  1.471E-01  2.000E+01  2.000E+04 -1.517E-02
   1   16   11     1    11    1.0300E+05 -3.6141E+02   1.0336E+05  0.000E+00  0.000E+00  0.000E+00  4.36360E+01  1.474E-01  2.000E+01  2.000E+04 -1.807E-02
   1   16   12     1    12    1.0336E+05 -7.0805E+02   1.0407E+05  0.000E+00  0.000E+00  0.000E+00  4.31592E+01  1.478E-01  2.000E+01  2.000E+04 -3.540E-02
   1   15   13     1    13    1.0407E+05 -8.6844E+02   1.0493E+05  0.000E+00  0.000E+00  0.000E+00  4.26826E+01  1.485E-01  2.000E+01  2.000E+04 -4.342E-02
   1   14   14     1    14    1.0493E+05 -1.1931E+03   1.0613E+05  0.000E+00  0.000E+00  0.000E+00  4.22062E+01  1.494E-01  2.000E+01  2.000E+04 -5.966E-02
   1   13   15     1    15    1.0613E+05 -1.4871E+03   1.0761E+05  0.000E+00  0.000E+00  0.000E+00  4.17301E+01  1.505E-01  2.000E+01  2.000E+04 -7.436E-02
   1   12   16     1    16    1.0761E+05 -1.8912E+03   1.0951E+05  0.000E+00  0.000E+00  0.000E+00  4.12542E+01  1.520E-01  2.000E+01  2.000E+04 -9.456E-02
   1   12   17     1    17    1.0951E+05 -9.8047E+02   1.1049E+05  0.000E+00  0.000E+00  0.000E+00  4.07782E+01  1.532E-01  2.000E+01  2.000E+04 -4.902E-02
   1   12   18     1    18    1.1049E+05 -6.9188E+02   1.1118E+05  0.000E+00  0.000E+00  0.000E+00  4.03016E+01  1.539E-01  2.000E+01  2.000E+04 -3.459E-02
   1   12   19     1    19    1.1118E+05 -3.3333E+02   1.1151E+05  0.000E+00  0.000E+00  0.000E+00  3.98247E+01  1.543E-01  2.000E+01  2.000E+04 -1.667E-02
   1   13   20     1    20    1.1151E+05 -2.9827E+02   1.1181E+05  0.000E+00  0.000E+00  0.000E+00  3.93477E+01  1.545E-01  2.000E+01  2.000E+04 -1.491E-02
   1   14   21     1    21    1.1181E+05 -5.0658E+02   1.1232E+05  0.000E+00  0.000E+00  0.000E+00  3.88708E+01  1.549E-01  2.000E+01  2.000E+04 -2.533E-02
   1   14   22     1    22    1.1232E+05  5.1835E+03   1.0713E+05  0.000E+00  0.000E+00  0.000E+00  3.83916E+01  1.529E-01  2.000E+01  2.000E+04  2.592E-01
   1    9   30     2     1    5.0000E+04  4.4991E+02   4.9550E+04  0.000E+00  0.000E+00  0.000E+00  4.02406E+01  1.156E-01  2.000E+01  2.000E+04  2.250E-02
   1    9   29     2     2    4.9550E+04  2.4976E+02   4.9300E+04  0.000E+00  0.000E+00  0.000E+00  3.99901E+01  1.151E-01  2.000E+01  2.000E+04  1.249E-02
   1    9   28     2     3    4.9300E+04  2.3660E+02   4.9064E+04  0.000E+00  0.000E+00  0.000E+00  3.97397E+01  1.147E-01  2.000E+01  2.000E+04  1.183E-02
   1    9   27     2     4    4.9064E+04  3.8056E+02   4.8683E+04  0.000E+00  0.000E+00  0.000E+00  3.94893E+01  1.143E-01  2.000E+01  2.000E+04  1.903E-02
   1   10   26     2     5    4.8683E+04  4.5059E+02   4.8233E+04  0.000E+00  0.000E+00  0.000E+00  3.92387E+01  1.137E-01  2.000E+01  2.000E+04  2.253E-02
   1   11   25     2     6    4.8233E+04  3.4423E+02   4.7888E+04  0.000E+00  0.000E+00  0.000E+00  3.89881E+01  1.131E-01  2.000E+01  2.000E+04  1.721E-02
   1   12   24     2     7    4.7888E+04  1.4327E+02   4.7745E+04  0.000E+00  0.000E+00  0.000E+00  3.87378E+01  1.128E-01  2.000E+01  2.000E+04  7.164E-03
   1   13   23     2     8    4.7745E+04  9.7709E+00   4.7735E+04  0.000E+00  0.000E+00  0.000E+00  3.84877E+01  1.127E-01  2.000E+01  2.000E+04  4.885E-04
   1   14   22     2     9    4.7735E+04  2.0763E+03   4.5659E+04  0.000E+00  0.000E+00  0.000E+00  3.82362E+01  1.112E-01  2.000E+01  2.000E+04  1.038E-01
   1   14   22     3     1    1.5279E+05 -8.3902E+03   1.6118E+05  0.000E+00  0.000E+00  0.000E+00  3.77129E+01  1.573E-01  2.000E+01  2.000E+04 -4.195E-01
   1   15   23     3     2    1.6118E+05 -3.7016E+02   1.6155E+05  0.000E+00  0.000E+00  0.000E+00  3.68266E+01  1.600E-01  2.000E+01  2.000E+04 -1.851E-02
   1   15   24     3     3    1.6155E+05 -2.0337E+02   1.6176E+05  0.000E+00  0.000E+00  0.000E+00  3.59379E+01  1.601E-01  2.000E+01  2.000E+04 -1.017E-02
   1   15   25     3     4    1.6176E+05 -2.0753E+02   1.6196E+05  0.000E+00  0.000E+00  0.000E+00  3.50491E+01  1.602E-01  2.000E+01  2.000E+04 -1.038E-02
   1   15   26     3     5    1.6196E+05 -2.7071E+02   1.6223E+05  0.000E+00  0.000E+00  0.000E+00  3.41604E+01  1.604E-01  2.000E+01  2.000E+04 -1.354E-02
   1   16   27     3     6    1.6223E+05 -2.8236E+02   1.6252E+05  0.000E+00  0.000E+00  0.000E+00  3.32717E+01  1.606E-01  2.000E+01  2.000E+04 -1.412E-02
   1   17   28     3     7    1.6252E+05 -1.2768E+03   1.6379E+05  0.000E+00  0.000E+00  0.000E+00  3.23832E+01  1.610E-01  2.000E+01  2.000E+04 -6.384E-02
   1   18   29     3     8    1.6379E+05 -2.4432E+03   1.6624E+05  0.000E+00  0.000E+00  0.000E+00  3.14954E+01  1.621E-01  2.000E+01  2.000E+04 -1.222E-01
   1   18   30     3     9    1.6624E+05 -2.8783E+03   1.6911E+05  0.000E+00  0.000E+00  0.000E+00  3.06081E+01  1.637E-01  2.000E+01  2.000E+04 -1.439E-01



1
              HEAD IN LAYER   1 AT END OF TIME STEP   1 IN STRESS PERIOD    9
  ---------------------------------------------------------------------------

          1      2      3      4      5      6      7      8      9     10
         11     12     13     14     15     16     17     18     19     20
         21     22     23     24     25     26     27     28     29     30
 .........................................................................
   1  ****** ****** ****** ****** ****** ****** ****** ****** ****** ******
      ****** ****** ****** ****** ****** ****** ****** ****** ****** ******
      ****** ****** ****** ****** ****** ****** ****** ****** ****** ******
   2  ****** ****** ****** ****** ****** ****** ****** ****** ****** ******
      ****** ****** ****** ****** ****** ****** ****** ****** ****** ******
      ****** ****** ****** ****** ****** ****** ****** ****** ****** ******
   3  ****** ****** ****** ****** ****** ****** ****** ****** ****** ******
      ****** ****** ****** ****** ****** ****** ****** ****** ****** ******
      ****** ****** ****** ****** ****** ****** ****** ****** ****** ******
   4  ****** ****** ****** ****** ****** ****** ****** ****** ****** ******
      ****** ****** ****** ****** ****** ****** ****** ****** ****** ******
      ****** ****** ****** ****** ****** ****** ****** ****** ****** ******
   5  ****** ****** ****** ****** ****** ****** ****** ****** ****** ******
      ****** ****** ****** ****** ****** ****** ****** ****** ****** ******
      ****** ****** ****** ****** ****** ****** ****** ****** ****** ******
   6  ****** ****** ****** ****** ****** ****** ****** ****** ****** ******
      ****** ****** ****** ****** ****** ****** ****** ****** ****** ******
      ****** ****** ****** ****** ****** ****** ****** ****** ****** ******
   7  ****** ****** ****** ****** ****** ****** ****** ****** ****** ******
      ****** ****** ****** ****** ****** ****** ****** ****** ****** ******
      ****** ****** ****** ****** ****** ****** ****** ****** ****** ******
   8  ****** ****** ****** ****** ****** ****** ****** ****** ****** ******
      ****** ****** ****** ****** ****** ****** ****** ****** ****** ******
      ****** ****** ****** ****** ****** ****** ****** ****** ****** ******
   9  ****** ****** ****** ****** ****** ****** ****** ****** ****** ******
      ****** ****** ****** ****** ****** ****** ****** ****** ****** ******
      ****** ****** ****** ****** ****** ****** ****** ****** ****** ******
  10  ****** ****** ****** ****** ****** ****** ****** ****** ****** ******
      ****** ****** ****** ****** ****** ****** ****** ****** ****** ******
      ****** ****** ****** ****** ****** ****** ****** ****** ****** ******
  11  ****** ****** ****** ****** ****** ****** ****** ****** ****** ******
      ****** ****** ****** ****** ****** ****** ****** ****** ****** ******
      ****** ****** ****** ****** ****** ****** ****** ****** ****** ******
  12  ****** ****** ****** ****** ****** ****** ****** ****** ****** ******
      ****** ****** ****** ****** ****** ****** ****** ****** ****** ******
      ****** ****** ****** ****** ****** ****** ****** ****** ****** ******
  13  ****** ****** ****** ****** ****** ****** ****** ****** ****** ******
      ****** ****** ****** ****** ****** ****** ****** ****** ****** ******
      ****** ****** ****** ****** ****** ****** ****** ****** ****** ******
  14  ****** ****** ****** ****** ****** ****** ****** ****** ****** ******
      ****** ****** ****** ****** ****** ****** ****** ****** ****** ******
      ****** ****** ****** ****** ****** ****** ****** ****** ****** ******
  15  ****** ****** ****** ****** ****** ****** ****** ****** ****** ******
      ****** ****** ****** ****** ****** ****** ****** ****** ****** ******
      ****** ****** ****** ****** ****** ****** ****** ****** ****** ******
  16  ****** ****** ****** ****** ****** ****** ****** ****** ****** ******
      ****** ****** ****** ****** ****** ****** ****** ****** ****** ******
      ****** ****** ****** ****** ****** ****** ****** ****** ****** ******
  17  ****** ****** ****** ****** ****** ****** ****** ****** ****** ******
      ****** ****** ****** ****** ****** ****** ****** ****** ****** ******
      ****** ****** ****** ****** ****** ****** ****** ****** ****** ******
  18  ****** ****** ****** ****** ****** ****** ****** ****** ****** ******
      ****** ****** ****** ****** ****** ****** ****** ****** ****** ******
      ****** ****** ****** ****** ****** ****** ****** ****** ****** ******
  19  ****** ****** ****** ****** ****** ****** ****** ****** ****** ******
      ****** ****** ****** ****** ****** ****** ****** ****** ****** ******
      ****** ****** ****** ****** ****** ****** ****** ****** ****** ******
  20  ****** ****** ****** ****** ****** ****** ****** ****** ****** ******
      ****** ****** ****** ****** ****** ****** ****** ****** ****** ******
      ****** ****** ****** ****** ****** ****** ****** ****** ****** ******
  21  ****** ****** ****** ****** ****** ****** ****** ****** ****** ******
      ****** ****** ****** ****** ****** ****** ****** ****** ****** ******
      ****** ****** ****** ****** ****** ****** ****** ****** ****** ******
  22  ****** ****** ****** ****** ****** ****** ****** ****** ****** ******
      ****** ****** ****** ****** ****** ****** ****** ****** ****** ******
      ****** ****** ****** ****** ****** ****** ****** ****** ****** ******
  23  ****** ****** ****** ****** ****** ****** ****** ****** ****** ******
      ****** ****** ****** ****** ****** ****** ****** ****** ****** ******
      ****** ****** ****** ****** ****** ****** ****** ****** ****** ******
  24  ****** ****** ****** ****** ****** ****** ****** ****** ****** ******
      ****** ****** ****** ****** ****** ****** ****** ****** ****** ******
      ****** ****** ****** ****** ****** ****** ****** ****** ****** ******
  25  ****** ****** ****** ****** ****** ****** ****** ****** ****** ******
      ****** ****** ****** ****** ****** ****** ****** ****** ****** ******
      ****** ****** ****** ****** ****** ****** ****** ****** ****** ******

 HEAD WILL BE SAVED ON UNIT   51 AT END OF TIME STEP    1, STRESS PERIOD    9
1
  VOLUMETRIC BUDGET FOR ENTIRE MODEL AT END OF TIME STEP    1, STRESS PERIOD   9
  ------------------------------------------------------------------------------

     CUMULATIVE VOLUMES      L**3       RATES FOR THIS TIME STEP      L**3/T
     ------------------                 ------------------------

           IN:                                      IN:
           ---                                      ---
             STORAGE =    35360106.9937               STORAGE =        7243.6546
       CONSTANT HEAD =    24550192.8659         CONSTANT HEAD =       37287.5356
               WELLS =           0.0000                 WELLS =           0.0000
            RECHARGE =    18878400.0000              RECHARGE =       13800.0000
      STREAM LEAKAGE =     6464899.3749        STREAM LEAKAGE =       10962.7659

            TOTAL IN =    85253599.2345              TOTAL IN =       69293.9561

          OUT:                                     OUT:
          ----                                     ----
             STORAGE =      904415.6245               STORAGE =           0.0000
       CONSTANT HEAD =           0.0000         CONSTANT HEAD =           0.0000
               WELLS =    32236210.9962                 WELLS =       39216.8017
            RECHARGE =           0.0000              RECHARGE =           0.0000
      STREAM LEAKAGE =    52112974.6558        STREAM LEAKAGE =       30077.1552

           TOTAL OUT =    85253601.2766             TOTAL OUT =       69293.9569

            IN - OUT =          -2.0421              IN - OUT =      -8.1355E-04

 PERCENT DISCREPANCY =          -0.00     PERCENT DISCREPANCY =          -0.00






         TIME SUMMARY AT END OF TIME STEP    1 IN STRESS PERIOD    9
                    SECONDS     MINUTES      HOURS       DAYS        YEARS
                    -----------------------------------------------------------
   TIME STEP LENGTH 7.94880E+06 1.32480E+05  2208.0      92.000     0.25188    
 STRESS PERIOD TIME 7.94880E+06 1.32480E+05  2208.0      92.000     0.25188    
         TOTAL TIME 7.10208E+07 1.18368E+06  19728.      822.00      2.2505    
1
1
                            STRESS PERIOD NO.   10, LENGTH =   91.00000    
                            -----------------------------------------------

                              NUMBER OF TIME STEPS =     1

                               MULTIPLIER FOR DELT =     1.500

                            INITIAL TIME STEP SIZE =   91.00000    

 WELL NO.  LAYER   ROW   COL   STRESS RATE         
 --------------------------------------------------
      1      1      9     21      -9430.    
      2      1      5     25     -0.1289E+05
      3      1     22     18      -7019.    
      4      1     19      6      -9882.    

      4 WELLS

                 RECHARGE =  2.000000E-03

 REUSING STREAM SEGMENT DATA FROM LAST STRESS PERIOD
 
 SOLVING FOR HEAD 


     7 CALLS TO PCG ROUTINE FOR TIME STEP   1 IN STRESS PERIOD   10
    26 TOTAL ITERATIONS

 OUTPUT CONTROL FOR STRESS PERIOD   10   TIME STEP    1
    SAVE BUDGET
    SAVE HEAD FOR ALL LAYERS
    PRINT HEAD FOR ALL LAYERS
 UBDSV2 SAVING "STREAMFLOW OUT  " ON UNIT  50 AT TIME STEP  1, STRESS PERIOD  10



 STREAM LISTING     PERIOD     10   STEP        1

 LAYER ROW COL. STREAM  RCH.  FLOW INTO     FLOW TO   FLOW OUT OF   OVRLND.     DIRECT     STREAM       STREAM     STREAM     STREAM   STREAMBED  STREAMBED
                SEG.NO.  NO.  STRM. RCH.    AQUIFER    STRM. RCH.    RUNOFF     PRECIP       ET          HEAD       DEPTH      WIDTH   CONDCTNC.   GRADIENT

   1   13    1     1     1    1.0000E+05 -1.7258E+03   1.0173E+05  0.000E+00  0.000E+00  0.000E+00  4.84068E+01  1.454E-01  2.000E+01  2.000E+04 -8.629E-02
   1   13    2     1     2    1.0173E+05 -2.7310E+03   1.0446E+05  0.000E+00  0.000E+00  0.000E+00  4.79314E+01  1.473E-01  2.000E+01  2.000E+04 -1.365E-01
   1   14    3     1     3    1.0446E+05 -4.6801E+02   1.0492E+05  0.000E+00  0.000E+00  0.000E+00  4.74555E+01  1.487E-01  2.000E+01  2.000E+04 -2.340E-02
   1   15    4     1     4    1.0492E+05 -3.5929E+02   1.0528E+05  0.000E+00  0.000E+00  0.000E+00  4.69786E+01  1.490E-01  2.000E+01  2.000E+04 -1.796E-02
   1   16    5     1     5    1.0528E+05  5.3013E+01   1.0523E+05  0.000E+00  0.000E+00  0.000E+00  4.65014E+01  1.492E-01  2.000E+01  2.000E+04  2.651E-03
   1   16    6     1     6    1.0523E+05  1.3343E+02   1.0510E+05  0.000E+00  0.000E+00  0.000E+00  4.60241E+01  1.491E-01  2.000E+01  2.000E+04  6.672E-03
   1   16    7     1     7    1.0510E+05 -7.8712E+01   1.0518E+05  0.000E+00  0.000E+00  0.000E+00  4.55468E+01  1.491E-01  2.000E+01  2.000E+04 -3.936E-03
   1   16    8     1     8    1.0518E+05 -3.3143E+02   1.0551E+05  0.000E+00  0.000E+00  0.000E+00  4.50697E+01  1.492E-01  2.000E+01  2.000E+04 -1.657E-02
   1   16    9     1     9    1.0551E+05 -5.2339E+02   1.0603E+05  0.000E+00  0.000E+00  0.000E+00  4.45928E+01  1.496E-01  2.000E+01  2.000E+04 -2.617E-02
   1   16   10     1    10    1.0603E+05 -6.4055E+02   1.0667E+05  0.000E+00  0.000E+00  0.000E+00  4.41160E+01  1.501E-01  2.000E+01  2.000E+04 -3.203E-02
   1   16   11     1    11    1.0667E+05 -7.0198E+02   1.0737E+05  0.000E+00  0.000E+00  0.000E+00  4.36393E+01  1.507E-01  2.000E+01  2.000E+04 -3.510E-02
   1   16   12     1    12    1.0737E+05 -1.2765E+03   1.0865E+05  0.000E+00  0.000E+00  0.000E+00  4.31629E+01  1.515E-01  2.000E+01  2.000E+04 -6.383E-02
   1   15   13     1    13    1.0865E+05 -1.4541E+03   1.1010E+05  0.000E+00  0.000E+00  0.000E+00  4.26867E+01  1.526E-01  2.000E+01  2.000E+04 -7.271E-02
   1   14   14     1    14    1.1010E+05 -1.7861E+03   1.1189E+05  0.000E+00  0.000E+00  0.000E+00  4.22108E+01  1.540E-01  2.000E+01  2.000E+04 -8.931E-02
   1   13   15     1    15    1.1189E+05 -2.0701E+03   1.1396E+05  0.000E+00  0.000E+00  0.000E+00  4.17351E+01  1.556E-01  2.000E+01  2.000E+04 -1.035E-01
   1   12   16     1    16    1.1396E+05 -2.4528E+03   1.1641E+05  0.000E+00  0.000E+00  0.000E+00  4.12597E+01  1.575E-01  2.000E+01  2.000E+04 -1.226E-01
   1   12   17     1    17    1.1641E+05 -1.4056E+03   1.1782E+05  0.000E+00  0.000E+00  0.000E+00  4.07840E+01  1.590E-01  2.000E+01  2.000E+04 -7.028E-02
   1   12   18     1    18    1.1782E+05 -1.1128E+03   1.1893E+05  0.000E+00  0.000E+00  0.000E+00  4.03078E+01  1.601E-01  2.000E+01  2.000E+04 -5.564E-02
   1   12   19     1    19    1.1893E+05 -8.5134E+02   1.1978E+05  0.000E+00  0.000E+00  0.000E+00  3.98313E+01  1.609E-01  2.000E+01  2.000E+04 -4.257E-02
   1   13   20     1    20    1.1978E+05 -8.1895E+02   1.2060E+05  0.000E+00  0.000E+00  0.000E+00  3.93547E+01  1.615E-01  2.000E+01  2.000E+04 -4.095E-02
   1   14   21     1    21    1.2060E+05 -1.0308E+03   1.2163E+05  0.000E+00  0.000E+00  0.000E+00  3.88782E+01  1.623E-01  2.000E+01  2.000E+04 -5.154E-02
   1   14   22     1    22    1.2163E+05  5.0558E+03   1.1658E+05  0.000E+00  0.000E+00  0.000E+00  3.83993E+01  1.607E-01  2.000E+01  2.000E+04  2.528E-01
   1    9   30     2     1    5.0000E+04  3.6032E+01   4.9964E+04  0.000E+00  0.000E+00  0.000E+00  4.02408E+01  1.158E-01  2.000E+01  2.000E+04  1.802E-03
   1    9   29     2     2    4.9964E+04 -1.6181E+02   5.0126E+04  0.000E+00  0.000E+00  0.000E+00  3.99909E+01  1.159E-01  2.000E+01  2.000E+04 -8.091E-03
   1    9   28     2     3    5.0126E+04 -1.7413E+02   5.0300E+04  0.000E+00  0.000E+00  0.000E+00  3.97412E+01  1.162E-01  2.000E+01  2.000E+04 -8.707E-03
   1    9   27     2     4    5.0300E+04 -1.7164E+02   5.0472E+04  0.000E+00  0.000E+00  0.000E+00  3.94914E+01  1.164E-01  2.000E+01  2.000E+04 -8.582E-03
   1   10   26     2     5    5.0472E+04 -1.0182E+02   5.0573E+04  0.000E+00  0.000E+00  0.000E+00  3.92416E+01  1.166E-01  2.000E+01  2.000E+04 -5.091E-03
   1   11   25     2     6    5.0573E+04 -1.8373E+02   5.0757E+04  0.000E+00  0.000E+00  0.000E+00  3.89918E+01  1.168E-01  2.000E+01  2.000E+04 -9.186E-03
   1   12   24     2     7    5.0757E+04 -3.3453E+02   5.1092E+04  0.000E+00  0.000E+00  0.000E+00  3.87421E+01  1.171E-01  2.000E+01  2.000E+04 -1.673E-02
   1   13   23     2     8    5.1092E+04 -1.3885E+02   5.1230E+04  0.000E+00  0.000E+00  0.000E+00  3.84925E+01  1.175E-01  2.000E+01  2.000E+04 -6.942E-03
   1   14   22     2     9    5.1230E+04  1.8952E+03   4.9335E+04  0.000E+00  0.000E+00  0.000E+00  3.82413E+01  1.163E-01  2.000E+01  2.000E+04  9.476E-02
   1   14   22     3     1    1.6591E+05 -8.5162E+03   1.7443E+05  0.000E+00  0.000E+00  0.000E+00  3.77207E+01  1.651E-01  2.000E+01  2.000E+04 -4.258E-01
   1   15   23     3     2    1.7443E+05 -5.3251E+02   1.7496E+05  0.000E+00  0.000E+00  0.000E+00  3.68344E+01  1.678E-01  2.000E+01  2.000E+04 -2.663E-02
   1   15   24     3     3    1.7496E+05 -3.4045E+02   1.7530E+05  0.000E+00  0.000E+00  0.000E+00  3.59458E+01  1.680E-01  2.000E+01  2.000E+04 -1.702E-02
   1   15   25     3     4    1.7530E+05 -3.4803E+02   1.7565E+05  0.000E+00  0.000E+00  0.000E+00  3.50571E+01  1.682E-01  2.000E+01  2.000E+04 -1.740E-02
   1   15   26     3     5    1.7565E+05 -4.3289E+02   1.7608E+05  0.000E+00  0.000E+00  0.000E+00  3.41684E+01  1.684E-01  2.000E+01  2.000E+04 -2.164E-02
   1   16   27     3     6    1.7608E+05 -4.6812E+02   1.7655E+05  0.000E+00  0.000E+00  0.000E+00  3.32798E+01  1.687E-01  2.000E+01  2.000E+04 -2.341E-02
   1   17   28     3     7    1.7655E+05 -1.7971E+03   1.7835E+05  0.000E+00  0.000E+00  0.000E+00  3.23916E+01  1.693E-01  2.000E+01  2.000E+04 -8.985E-02
   1   18   29     3     8    1.7835E+05 -2.9939E+03   1.8134E+05  0.000E+00  0.000E+00  0.000E+00  3.15040E+01  1.707E-01  2.000E+01  2.000E+04 -1.497E-01
   1   18   30     3     9    1.8134E+05 -3.3032E+03   1.8464E+05  0.000E+00  0.000E+00  0.000E+00  3.06169E+01  1.725E-01  2.000E+01  2.000E+04 -1.652E-01



1
              HEAD IN LAYER   1 AT END OF TIME STEP   1 IN STRESS PERIOD   10
  ---------------------------------------------------------------------------

          1      2      3      4      5      6      7      8      9     10
         11     12     13     14     15     16     17     18     19     20
         21     22     23     24     25     26     27     28     29     30
 .........................................................................
   1  ****** ****** ****** ****** ****** ****** ****** ****** ****** ******
      ****** ****** ****** ****** ****** ****** ****** ****** ****** ******
      ****** ****** ****** ****** ****** ****** ****** ****** ****** ******
   2  ****** ****** ****** ****** ****** ****** ****** ****** ****** ******
      ****** ****** ****** ****** ****** ****** ****** ****** ****** ******
      ****** ****** ****** ****** ****** ****** ****** ****** ****** ******
   3  ****** ****** ****** ****** ****** ****** ****** ****** ****** ******
      ****** ****** ****** ****** ****** ****** ****** ****** ****** ******
      ****** ****** ****** ****** ****** ****** ****** ****** ****** ******
   4  ****** ****** ****** ****** ****** ****** ****** ****** ****** ******
      ****** ****** ****** ****** ****** ****** ****** ****** ****** ******
      ****** ****** ****** ****** ****** ****** ****** ****** ****** ******
   5  ****** ****** ****** ****** ****** ****** ****** ****** ****** ******
      ****** ****** ****** ****** ****** ****** ****** ****** ****** ******
      ****** ****** ****** ****** ****** ****** ****** ****** ****** ******
   6  ****** ****** ****** ****** ****** ****** ****** ****** ****** ******
      ****** ****** ****** ****** ****** ****** ****** ****** ****** ******
      ****** ****** ****** ****** ****** ****** ****** ****** ****** ******
   7  ****** ****** ****** ****** ****** ****** ****** ****** ****** ******
      ****** ****** ****** ****** ****** ****** ****** ****** ****** ******
      ****** ****** ****** ****** ****** ****** ****** ****** ****** ******
   8  ****** ****** ****** ****** ****** ****** ****** ****** ****** ******
      ****** ****** ****** ****** ****** ****** ****** ****** ****** ******
      ****** ****** ****** ****** ****** ****** ****** ****** ****** ******
   9  ****** ****** ****** ****** ****** ****** ****** ****** ****** ******
      ****** ****** ****** ****** ****** ****** ****** ****** ****** ******
      ****** ****** ****** ****** ****** ****** ****** ****** ****** ******
  10  ****** ****** ****** ****** ****** ****** ****** ****** ****** ******
      ****** ****** ****** ****** ****** ****** ****** ****** ****** ******
      ****** ****** ****** ****** ****** ****** ****** ****** ****** ******
  11  ****** ****** ****** ****** ****** ****** ****** ****** ****** ******
      ****** ****** ****** ****** ****** ****** ****** ****** ****** ******
      ****** ****** ****** ****** ****** ****** ****** ****** ****** ******
  12  ****** ****** ****** ****** ****** ****** ****** ****** ****** ******
      ****** ****** ****** ****** ****** ****** ****** ****** ****** ******
      ****** ****** ****** ****** ****** ****** ****** ****** ****** ******
  13  ****** ****** ****** ****** ****** ****** ****** ****** ****** ******
      ****** ****** ****** ****** ****** ****** ****** ****** ****** ******
      ****** ****** ****** ****** ****** ****** ****** ****** ****** ******
  14  ****** ****** ****** ****** ****** ****** ****** ****** ****** ******
      ****** ****** ****** ****** ****** ****** ****** ****** ****** ******
      ****** ****** ****** ****** ****** ****** ****** ****** ****** ******
  15  ****** ****** ****** ****** ****** ****** ****** ****** ****** ******
      ****** ****** ****** ****** ****** ****** ****** ****** ****** ******
      ****** ****** ****** ****** ****** ****** ****** ****** ****** ******
  16  ****** ****** ****** ****** ****** ****** ****** ****** ****** ******
      ****** ****** ****** ****** ****** ****** ****** ****** ****** ******
      ****** ****** ****** ****** ****** ****** ****** ****** ****** ******
  17  ****** ****** ****** ****** ****** ****** ****** ****** ****** ******
      ****** ****** ****** ****** ****** ****** ****** ****** ****** ******
      ****** ****** ****** ****** ****** ****** ****** ****** ****** ******
  18  ****** ****** ****** ****** ****** ****** ****** ****** ****** ******
      ****** ****** ****** ****** ****** ****** ****** ****** ****** ******
      ****** ****** ****** ****** ****** ****** ****** ****** ****** ******
  19  ****** ****** ****** ****** ****** ****** ****** ****** ****** ******
      ****** ****** ****** ****** ****** ****** ****** ****** ****** ******
      ****** ****** ****** ****** ****** ****** ****** ****** ****** ******
  20  ****** ****** ****** ****** ****** ****** ****** ****** ****** ******
      ****** ****** ****** ****** ****** ****** ****** ****** ****** ******
      ****** ****** ****** ****** ****** ****** ****** ****** ****** ******
  21  ****** ****** ****** ****** ****** ****** ****** ****** ****** ******
      ****** ****** ****** ****** ****** ****** ****** ****** ****** ******
      ****** ****** ****** ****** ****** ****** ****** ****** ****** ******
  22  ****** ****** ****** ****** ****** ****** ****** ****** ****** ******
      ****** ****** ****** ****** ****** ****** ****** ****** ****** ******
      ****** ****** ****** ****** ****** ****** ****** ****** ****** ******
  23  ****** ****** ****** ****** ****** ****** ****** ****** ****** ******
      ****** ****** ****** ****** ****** ****** ****** ****** ****** ******
      ****** ****** ****** ****** ****** ****** ****** ****** ****** ******
  24  ****** ****** ****** ****** ****** ****** ****** ****** ****** ******
      ****** ****** ****** ****** ****** ****** ****** ****** ****** ******
      ****** ****** ****** ****** ****** ****** ****** ****** ****** ******
  25  ****** ****** ****** ****** ****** ****** ****** ****** ****** ******
      ****** ****** ****** ****** ****** ****** ****** ****** ****** ******
      ****** ****** ****** ****** ****** ****** ****** ****** ****** ******

 HEAD WILL BE SAVED ON UNIT   51 AT END OF TIME STEP    1, STRESS PERIOD   10
1
  VOLUMETRIC BUDGET FOR ENTIRE MODEL AT END OF TIME STEP    1, STRESS PERIOD  10
  ------------------------------------------------------------------------------

     CUMULATIVE VOLUMES      L**3       RATES FOR THIS TIME STEP      L**3/T
     ------------------                 ------------------------

           IN:                                      IN:
           ---                                      ---
             STORAGE =    35360106.9937               STORAGE =           0.0000
       CONSTANT HEAD =    27675025.0779         CONSTANT HEAD =       34338.8155
               WELLS =           0.0000                 WELLS =           0.0000
            RECHARGE =    23901600.0000              RECHARGE =       55200.0000
      STREAM LEAKAGE =     7117684.2765        STREAM LEAKAGE =        7173.4605

            TOTAL IN =    94054416.3481              TOTAL IN =       96712.2760

          OUT:                                     OUT:
          ----                                     ----
             STORAGE =     2331030.4992               STORAGE =       15677.0865
       CONSTANT HEAD =           0.0000         CONSTANT HEAD =           0.0000
               WELLS =    35804939.9508                 WELLS =       39216.8017
            RECHARGE =           0.0000              RECHARGE =           0.0000
      STREAM LEAKAGE =    55918447.5791        STREAM LEAKAGE =       41818.3838

           TOTAL OUT =    94054418.0292             TOTAL OUT =       96712.2720

            IN - OUT =          -1.6811              IN - OUT =       3.9668E-03

 PERCENT DISCREPANCY =          -0.00     PERCENT DISCREPANCY =           0.00






         TIME SUMMARY AT END OF TIME STEP    1 IN STRESS PERIOD   10
                    SECONDS     MINUTES      HOURS       DAYS        YEARS
                    -----------------------------------------------------------
   TIME STEP LENGTH 7.86240E+06 1.31040E+05  2184.0      91.000     0.24914    
 STRESS PERIOD TIME 7.86240E+06 1.31040E+05  2184.0      91.000     0.24914    
         TOTAL TIME 7.88832E+07 1.31472E+06  21912.      913.00      2.4997    
1
1
                            STRESS PERIOD NO.   11, LENGTH =   91.00000    
                            -----------------------------------------------

                              NUMBER OF TIME STEPS =     1

                               MULTIPLIER FOR DELT =     1.500

                            INITIAL TIME STEP SIZE =   91.00000    

 WELL NO.  LAYER   ROW   COL   STRESS RATE         
 --------------------------------------------------
      1      1      9     21      -9430.    
      2      1      5     25     -0.1289E+05
      3      1     22     18      -7019.    
      4      1     19      6      -9882.    

      4 WELLS

                 RECHARGE =   0.00000    

 REUSING STREAM SEGMENT DATA FROM LAST STRESS PERIOD
 
 SOLVING FOR HEAD 


     7 CALLS TO PCG ROUTINE FOR TIME STEP   1 IN STRESS PERIOD   11
    26 TOTAL ITERATIONS

 OUTPUT CONTROL FOR STRESS PERIOD   11   TIME STEP    1
    SAVE BUDGET
    SAVE HEAD FOR ALL LAYERS
    PRINT HEAD FOR ALL LAYERS
 UBDSV2 SAVING "STREAMFLOW OUT  " ON UNIT  50 AT TIME STEP  1, STRESS PERIOD  11



 STREAM LISTING     PERIOD     11   STEP        1

 LAYER ROW COL. STREAM  RCH.  FLOW INTO     FLOW TO   FLOW OUT OF   OVRLND.     DIRECT     STREAM       STREAM     STREAM     STREAM   STREAMBED  STREAMBED
                SEG.NO.  NO.  STRM. RCH.    AQUIFER    STRM. RCH.    RUNOFF     PRECIP       ET          HEAD       DEPTH      WIDTH   CONDCTNC.   GRADIENT

   1   13    1     1     1    1.0000E+05 -1.1580E+03   1.0116E+05  0.000E+00  0.000E+00  0.000E+00  4.84065E+01  1.452E-01  2.000E+01  2.000E+04 -5.790E-02
   1   13    2     1     2    1.0116E+05 -2.0987E+03   1.0326E+05  0.000E+00  0.000E+00  0.000E+00  4.79307E+01  1.466E-01  2.000E+01  2.000E+04 -1.049E-01
   1   14    3     1     3    1.0326E+05 -2.3709E+02   1.0349E+05  0.000E+00  0.000E+00  0.000E+00  4.74544E+01  1.476E-01  2.000E+01  2.000E+04 -1.185E-02
   1   15    4     1     4    1.0349E+05 -1.1733E+02   1.0361E+05  0.000E+00  0.000E+00  0.000E+00  4.69773E+01  1.477E-01  2.000E+01  2.000E+04 -5.867E-03
   1   16    5     1     5    1.0361E+05  7.4138E+02   1.0287E+05  0.000E+00  0.000E+00  0.000E+00  4.64997E+01  1.474E-01  2.000E+01  2.000E+04  3.707E-02
   1   16    6     1     6    1.0287E+05  5.4796E+02   1.0232E+05  0.000E+00  0.000E+00  0.000E+00  4.60219E+01  1.469E-01  2.000E+01  2.000E+04  2.740E-02
   1   16    7     1     7    1.0232E+05  3.1818E+02   1.0200E+05  0.000E+00  0.000E+00  0.000E+00  4.55442E+01  1.465E-01  2.000E+01  2.000E+04  1.591E-02
   1   16    8     1     8    1.0200E+05  5.9935E+01   1.0194E+05  0.000E+00  0.000E+00  0.000E+00  4.50668E+01  1.464E-01  2.000E+01  2.000E+04  2.997E-03
   1   16    9     1     9    1.0194E+05 -1.3425E+02   1.0208E+05  0.000E+00  0.000E+00  0.000E+00  4.45896E+01  1.464E-01  2.000E+01  2.000E+04 -6.712E-03
   1   16   10     1    10    1.0208E+05 -2.5248E+02   1.0233E+05  0.000E+00  0.000E+00  0.000E+00  4.41125E+01  1.466E-01  2.000E+01  2.000E+04 -1.262E-02
   1   16   11     1    11    1.0233E+05 -3.1208E+02   1.0264E+05  0.000E+00  0.000E+00  0.000E+00  4.36354E+01  1.468E-01  2.000E+01  2.000E+04 -1.560E-02
   1   16   12     1    12    1.0264E+05 -6.3045E+02   1.0327E+05  0.000E+00  0.000E+00  0.000E+00  4.31586E+01  1.472E-01  2.000E+01  2.000E+04 -3.152E-02
   1   15   13     1    13    1.0327E+05 -7.6532E+02   1.0404E+05  0.000E+00  0.000E+00  0.000E+00  4.26819E+01  1.478E-01  2.000E+01  2.000E+04 -3.827E-02
   1   14   14     1    14    1.0404E+05 -1.0796E+03   1.0512E+05  0.000E+00  0.000E+00  0.000E+00  4.22054E+01  1.486E-01  2.000E+01  2.000E+04 -5.398E-02
   1   13   15     1    15    1.0512E+05 -1.3692E+03   1.0649E+05  0.000E+00  0.000E+00  0.000E+00  4.17292E+01  1.496E-01  2.000E+01  2.000E+04 -6.846E-02
   1   12   16     1    16    1.0649E+05 -1.7753E+03   1.0826E+05  0.000E+00  0.000E+00  0.000E+00  4.12532E+01  1.510E-01  2.000E+01  2.000E+04 -8.877E-02
   1   12   17     1    17    1.0826E+05 -8.9871E+02   1.0916E+05  0.000E+00  0.000E+00  0.000E+00  4.07771E+01  1.521E-01  2.000E+01  2.000E+04 -4.494E-02
   1   12   18     1    18    1.0916E+05 -6.1362E+02   1.0977E+05  0.000E+00  0.000E+00  0.000E+00  4.03004E+01  1.527E-01  2.000E+01  2.000E+04 -3.068E-02
   1   12   19     1    19    1.0977E+05 -2.3851E+02   1.1001E+05  0.000E+00  0.000E+00  0.000E+00  3.98235E+01  1.531E-01  2.000E+01  2.000E+04 -1.193E-02
   1   13   20     1    20    1.1001E+05 -2.0644E+02   1.1022E+05  0.000E+00  0.000E+00  0.000E+00  3.93464E+01  1.533E-01  2.000E+01  2.000E+04 -1.032E-02
   1   14   21     1    21    1.1022E+05 -4.3362E+02   1.1065E+05  0.000E+00  0.000E+00  0.000E+00  3.88694E+01  1.535E-01  2.000E+01  2.000E+04 -2.168E-02
   1   14   22     1    22    1.1065E+05  5.2035E+03   1.0545E+05  0.000E+00  0.000E+00  0.000E+00  3.83902E+01  1.515E-01  2.000E+01  2.000E+04  2.602E-01
   1    9   30     2     1    5.0000E+04  5.2423E+02   4.9476E+04  0.000E+00  0.000E+00  0.000E+00  4.02405E+01  1.155E-01  2.000E+01  2.000E+04  2.621E-02
   1    9   29     2     2    4.9476E+04  3.2333E+02   4.9152E+04  0.000E+00  0.000E+00  0.000E+00  3.99899E+01  1.149E-01  2.000E+01  2.000E+04  1.617E-02
   1    9   28     2     3    4.9152E+04  3.0884E+02   4.8844E+04  0.000E+00  0.000E+00  0.000E+00  3.97395E+01  1.145E-01  2.000E+01  2.000E+04  1.544E-02
   1    9   27     2     4    4.8844E+04  4.6834E+02   4.8375E+04  0.000E+00  0.000E+00  0.000E+00  3.94889E+01  1.139E-01  2.000E+01  2.000E+04  2.342E-02
   1   10   26     2     5    4.8375E+04  5.5246E+02   4.7823E+04  0.000E+00  0.000E+00  0.000E+00  3.92382E+01  1.132E-01  2.000E+01  2.000E+04  2.762E-02
   1   11   25     2     6    4.7823E+04  4.4668E+02   4.7376E+04  0.000E+00  0.000E+00  0.000E+00  3.89875E+01  1.125E-01  2.000E+01  2.000E+04  2.233E-02
   1   12   24     2     7    4.7376E+04  2.3882E+02   4.7137E+04  0.000E+00  0.000E+00  0.000E+00  3.87370E+01  1.120E-01  2.000E+01  2.000E+04  1.194E-02
   1   13   23     2     8    4.7137E+04  4.6991E+01   4.7090E+04  0.000E+00  0.000E+00  0.000E+00  3.84868E+01  1.118E-01  2.000E+01  2.000E+04  2.350E-03
   1   14   22     2     9    4.7090E+04  2.1055E+03   4.4985E+04  0.000E+00  0.000E+00  0.000E+00  3.82353E+01  1.103E-01  2.000E+01  2.000E+04  1.053E-01
   1   14   22     3     1    1.5043E+05 -8.3706E+03   1.5881E+05  0.000E+00  0.000E+00  0.000E+00  3.77115E+01  1.559E-01  2.000E+01  2.000E+04 -4.185E-01
   1   15   23     3     2    1.5881E+05 -3.4042E+02   1.5915E+05  0.000E+00  0.000E+00  0.000E+00  3.68252E+01  1.585E-01  2.000E+01  2.000E+04 -1.702E-02
   1   15   24     3     3    1.5915E+05 -1.7530E+02   1.5932E+05  0.000E+00  0.000E+00  0.000E+00  3.59365E+01  1.587E-01  2.000E+01  2.000E+04 -8.765E-03
   1   15   25     3     4    1.5932E+05 -1.7906E+02   1.5950E+05  0.000E+00  0.000E+00  0.000E+00  3.50477E+01  1.588E-01  2.000E+01  2.000E+04 -8.953E-03
   1   15   26     3     5    1.5950E+05 -2.3720E+02   1.5974E+05  0.000E+00  0.000E+00  0.000E+00  3.41589E+01  1.589E-01  2.000E+01  2.000E+04 -1.186E-02
   1   16   27     3     6    1.5974E+05 -2.4510E+02   1.5998E+05  0.000E+00  0.000E+00  0.000E+00  3.32702E+01  1.591E-01  2.000E+01  2.000E+04 -1.226E-02
   1   17   28     3     7    1.5998E+05 -1.1873E+03   1.6117E+05  0.000E+00  0.000E+00  0.000E+00  3.23817E+01  1.595E-01  2.000E+01  2.000E+04 -5.937E-02
   1   18   29     3     8    1.6117E+05 -2.3719E+03   1.6354E+05  0.000E+00  0.000E+00  0.000E+00  3.14939E+01  1.605E-01  2.000E+01  2.000E+04 -1.186E-01
   1   18   30     3     9    1.6354E+05 -2.8139E+03   1.6636E+05  0.000E+00  0.000E+00  0.000E+00  3.06065E+01  1.621E-01  2.000E+01  2.000E+04 -1.407E-01



1
              HEAD IN LAYER   1 AT END OF TIME STEP   1 IN STRESS PERIOD   11
  ---------------------------------------------------------------------------

          1      2      3      4      5      6      7      8      9     10
         11     12     13     14     15     16     17     18     19     20
         21     22     23     24     25     26     27     28     29     30
 .........................................................................
   1  ****** ****** ****** ****** ****** ****** ****** ****** ****** ******
      ****** ****** ****** ****** ****** ****** ****** ****** ****** ******
      ****** ****** ****** ****** ****** ****** ****** ****** ****** ******
   2  ****** ****** ****** ****** ****** ****** ****** ****** ****** ******
      ****** ****** ****** ****** ****** ****** ****** ****** ****** ******
      ****** ****** ****** ****** ****** ****** ****** ****** ****** ******
   3  ****** ****** ****** ****** ****** ****** ****** ****** ****** ******
      ****** ****** ****** ****** ****** ****** ****** ****** ****** ******
      ****** ****** ****** ****** ****** ****** ****** ****** ****** ******
   4  ****** ****** ****** ****** ****** ****** ****** ****** ****** ******
      ****** ****** ****** ****** ****** ****** ****** ****** ****** ******
      ****** ****** ****** ****** ****** ****** ****** ****** ****** ******
   5  ****** ****** ****** ****** ****** ****** ****** ****** ****** ******
      ****** ****** ****** ****** ****** ****** ****** ****** ****** ******
      ****** ****** ****** ****** ****** ****** ****** ****** ****** ******
   6  ****** ****** ****** ****** ****** ****** ****** ****** ****** ******
      ****** ****** ****** ****** ****** ****** ****** ****** ****** ******
      ****** ****** ****** ****** ****** ****** ****** ****** ****** ******
   7  ****** ****** ****** ****** ****** ****** ****** ****** ****** ******
      ****** ****** ****** ****** ****** ****** ****** ****** ****** ******
      ****** ****** ****** ****** ****** ****** ****** ****** ****** ******
   8  ****** ****** ****** ****** ****** ****** ****** ****** ****** ******
      ****** ****** ****** ****** ****** ****** ****** ****** ****** ******
      ****** ****** ****** ****** ****** ****** ****** ****** ****** ******
   9  ****** ****** ****** ****** ****** ****** ****** ****** ****** ******
      ****** ****** ****** ****** ****** ****** ****** ****** ****** ******
      ****** ****** ****** ****** ****** ****** ****** ****** ****** ******
  10  ****** ****** ****** ****** ****** ****** ****** ****** ****** ******
      ****** ****** ****** ****** ****** ****** ****** ****** ****** ******
      ****** ****** ****** ****** ****** ****** ****** ****** ****** ******
  11  ****** ****** ****** ****** ****** ****** ****** ****** ****** ******
      ****** ****** ****** ****** ****** ****** ****** ****** ****** ******
      ****** ****** ****** ****** ****** ****** ****** ****** ****** ******
  12  ****** ****** ****** ****** ****** ****** ****** ****** ****** ******
      ****** ****** ****** ****** ****** ****** ****** ****** ****** ******
      ****** ****** ****** ****** ****** ****** ****** ****** ****** ******
  13  ****** ****** ****** ****** ****** ****** ****** ****** ****** ******
      ****** ****** ****** ****** ****** ****** ****** ****** ****** ******
      ****** ****** ****** ****** ****** ****** ****** ****** ****** ******
  14  ****** ****** ****** ****** ****** ****** ****** ****** ****** ******
      ****** ****** ****** ****** ****** ****** ****** ****** ****** ******
      ****** ****** ****** ****** ****** ****** ****** ****** ****** ******
  15  ****** ****** ****** ****** ****** ****** ****** ****** ****** ******
      ****** ****** ****** ****** ****** ****** ****** ****** ****** ******
      ****** ****** ****** ****** ****** ****** ****** ****** ****** ******
  16  ****** ****** ****** ****** ****** ****** ****** ****** ****** ******
      ****** ****** ****** ****** ****** ****** ****** ****** ****** ******
      ****** ****** ****** ****** ****** ****** ****** ****** ****** ******
  17  ****** ****** ****** ****** ****** ****** ****** ****** ****** ******
      ****** ****** ****** ****** ****** ****** ****** ****** ****** ******
      ****** ****** ****** ****** ****** ****** ****** ****** ****** ******
  18  ****** ****** ****** ****** ****** ****** ****** ****** ****** ******
      ****** ****** ****** ****** ****** ****** ****** ****** ****** ******
      ****** ****** ****** ****** ****** ****** ****** ****** ****** ******
  19  ****** ****** ****** ****** ****** ****** ****** ****** ****** ******
      ****** ****** ****** ****** ****** ****** ****** ****** ****** ******
      ****** ****** ****** ****** ****** ****** ****** ****** ****** ******
  20  ****** ****** ****** ****** ****** ****** ****** ****** ****** ******
      ****** ****** ****** ****** ****** ****** ****** ****** ****** ******
      ****** ****** ****** ****** ****** ****** ****** ****** ****** ******
  21  ****** ****** ****** ****** ****** ****** ****** ****** ****** ******
      ****** ****** ****** ****** ****** ****** ****** ****** ****** ******
      ****** ****** ****** ****** ****** ****** ****** ****** ****** ******
  22  ****** ****** ****** ****** ****** ****** ****** ****** ****** ******
      ****** ****** ****** ****** ****** ****** ****** ****** ****** ******
      ****** ****** ****** ****** ****** ****** ****** ****** ****** ******
  23  ****** ****** ****** ****** ****** ****** ****** ****** ****** ******
      ****** ****** ****** ****** ****** ****** ****** ****** ****** ******
      ****** ****** ****** ****** ****** ****** ****** ****** ****** ******
  24  ****** ****** ****** ****** ****** ****** ****** ****** ****** ******
      ****** ****** ****** ****** ****** ****** ****** ****** ****** ******
      ****** ****** ****** ****** ****** ****** ****** ****** ****** ******
  25  ****** ****** ****** ****** ****** ****** ****** ****** ****** ******
      ****** ****** ****** ****** ****** ****** ****** ****** ****** ******
      ****** ****** ****** ****** ****** ****** ****** ****** ****** ******

 HEAD WILL BE SAVED ON UNIT   51 AT END OF TIME STEP    1, STRESS PERIOD   11
1
  VOLUMETRIC BUDGET FOR ENTIRE MODEL AT END OF TIME STEP    1, STRESS PERIOD  11
  ------------------------------------------------------------------------------

     CUMULATIVE VOLUMES      L**3       RATES FOR THIS TIME STEP      L**3/T
     ------------------                 ------------------------

           IN:                                      IN:
           ---                                      ---
             STORAGE =    36993163.6776               STORAGE =       17945.6778
       CONSTANT HEAD =    31099042.6823         CONSTANT HEAD =       37626.5671
               WELLS =           0.0000                 WELLS =           0.0000
            RECHARGE =    23901600.0000              RECHARGE =           0.0000
      STREAM LEAKAGE =     8199319.2984        STREAM LEAKAGE =       11886.0991

            TOTAL IN =   100193125.6583              TOTAL IN =       67458.3441

          OUT:                                     OUT:
          ----                                     ----
             STORAGE =     2331030.4992               STORAGE =           0.0000
       CONSTANT HEAD =           0.0000         CONSTANT HEAD =           0.0000
               WELLS =    39373668.9054                 WELLS =       39216.8017
            RECHARGE =           0.0000              RECHARGE =           0.0000
      STREAM LEAKAGE =    58488428.4040        STREAM LEAKAGE =       28241.5475

           TOTAL OUT =   100193127.8086             TOTAL OUT =       67458.3492

            IN - OUT =          -2.1503              IN - OUT =      -5.1566E-03

 PERCENT DISCREPANCY =          -0.00     PERCENT DISCREPANCY =          -0.00






         TIME SUMMARY AT END OF TIME STEP    1 IN STRESS PERIOD   11
                    SECONDS     MINUTES      HOURS       DAYS        YEARS
                    -----------------------------------------------------------
   TIME STEP LENGTH 7.86240E+06 1.31040E+05  2184.0      91.000     0.24914    
 STRESS PERIOD TIME 7.86240E+06 1.31040E+05  2184.0      91.000     0.24914    
         TOTAL TIME 8.67456E+07 1.44576E+06  24096.      1004.0      2.7488    
1
1
                            STRESS PERIOD NO.   12, LENGTH =   91.00000    
                            -----------------------------------------------

                              NUMBER OF TIME STEPS =     1

                               MULTIPLIER FOR DELT =     1.500

                            INITIAL TIME STEP SIZE =   91.00000    

 WELL NO.  LAYER   ROW   COL   STRESS RATE         
 --------------------------------------------------
      1      1      9     21      -9430.    
      2      1      5     25     -0.1289E+05
      3      1     22     18      -7019.    
      4      1     19      6      -9882.    

      4 WELLS

                 RECHARGE =  1.000000E-03

 REUSING STREAM SEGMENT DATA FROM LAST STRESS PERIOD
 
 SOLVING FOR HEAD 


     6 CALLS TO PCG ROUTINE FOR TIME STEP   1 IN STRESS PERIOD   12
    23 TOTAL ITERATIONS

 OUTPUT CONTROL FOR STRESS PERIOD   12   TIME STEP    1
    SAVE BUDGET
    SAVE HEAD FOR ALL LAYERS
    PRINT HEAD FOR ALL LAYERS
 UBDSV2 SAVING "STREAMFLOW OUT  " ON UNIT  50 AT TIME STEP  1, STRESS PERIOD  12



 STREAM LISTING     PERIOD     12   STEP        1

 LAYER ROW COL. STREAM  RCH.  FLOW INTO     FLOW TO   FLOW OUT OF   OVRLND.     DIRECT     STREAM       STREAM     STREAM     STREAM   STREAMBED  STREAMBED
                SEG.NO.  NO.  STRM. RCH.    AQUIFER    STRM. RCH.    RUNOFF     PRECIP       ET          HEAD       DEPTH      WIDTH   CONDCTNC.   GRADIENT

   1   13    1     1     1    1.0000E+05 -1.3021E+03   1.0130E+05  0.000E+00  0.000E+00  0.000E+00  4.84066E+01  1.452E-01  2.000E+01  2.000E+04 -6.511E-02
   1   13    2     1     2    1.0130E+05 -2.2538E+03   1.0356E+05  0.000E+00  0.000E+00  0.000E+00  4.79308E+01  1.468E-01  2.000E+01  2.000E+04 -1.127E-01
   1   14    3     1     3    1.0356E+05 -3.1563E+02   1.0387E+05  0.000E+00  0.000E+00  0.000E+00  4.74547E+01  1.479E-01  2.000E+01  2.000E+04 -1.578E-02
   1   15    4     1     4    1.0387E+05 -1.9966E+02   1.0407E+05  0.000E+00  0.000E+00  0.000E+00  4.69776E+01  1.481E-01  2.000E+01  2.000E+04 -9.983E-03
   1   16    5     1     5    1.0407E+05  5.3187E+02   1.0354E+05  0.000E+00  0.000E+00  0.000E+00  4.65002E+01  1.479E-01  2.000E+01  2.000E+04  2.659E-02
   1   16    6     1     6    1.0354E+05  4.1763E+02   1.0312E+05  0.000E+00  0.000E+00  0.000E+00  4.60225E+01  1.475E-01  2.000E+01  2.000E+04  2.088E-02
   1   16    7     1     7    1.0312E+05  1.9292E+02   1.0293E+05  0.000E+00  0.000E+00  0.000E+00  4.55450E+01  1.473E-01  2.000E+01  2.000E+04  9.646E-03
   1   16    8     1     8    1.0293E+05 -6.4285E+01   1.0299E+05  0.000E+00  0.000E+00  0.000E+00  4.50677E+01  1.472E-01  2.000E+01  2.000E+04 -3.214E-03
   1   16    9     1     9    1.0299E+05 -2.5889E+02   1.0325E+05  0.000E+00  0.000E+00  0.000E+00  4.45905E+01  1.473E-01  2.000E+01  2.000E+04 -1.294E-02
   1   16   10     1    10    1.0325E+05 -3.7843E+02   1.0363E+05  0.000E+00  0.000E+00  0.000E+00  4.41135E+01  1.476E-01  2.000E+01  2.000E+04 -1.892E-02
   1   16   11     1    11    1.0363E+05 -4.4023E+02   1.0407E+05  0.000E+00  0.000E+00  0.000E+00  4.36366E+01  1.480E-01  2.000E+01  2.000E+04 -2.201E-02
   1   16   12     1    12    1.0407E+05 -8.3187E+02   1.0490E+05  0.000E+00  0.000E+00  0.000E+00  4.31599E+01  1.485E-01  2.000E+01  2.000E+04 -4.159E-02
   1   15   13     1    13    1.0490E+05 -9.8208E+02   1.0588E+05  0.000E+00  0.000E+00  0.000E+00  4.26834E+01  1.493E-01  2.000E+01  2.000E+04 -4.910E-02
   1   14   14     1    14    1.0588E+05 -1.2970E+03   1.0718E+05  0.000E+00  0.000E+00  0.000E+00  4.22071E+01  1.503E-01  2.000E+01  2.000E+04 -6.485E-02
   1   13   15     1    15    1.0718E+05 -1.5793E+03   1.0876E+05  0.000E+00  0.000E+00  0.000E+00  4.17310E+01  1.515E-01  2.000E+01  2.000E+04 -7.897E-02
   1   12   16     1    16    1.0876E+05 -1.9590E+03   1.1072E+05  0.000E+00  0.000E+00  0.000E+00  4.12552E+01  1.529E-01  2.000E+01  2.000E+04 -9.795E-02
   1   12   17     1    17    1.1072E+05 -1.0522E+03   1.1177E+05  0.000E+00  0.000E+00  0.000E+00  4.07792E+01  1.542E-01  2.000E+01  2.000E+04 -5.261E-02
   1   12   18     1    18    1.1177E+05 -7.6928E+02   1.1254E+05  0.000E+00  0.000E+00  0.000E+00  4.03027E+01  1.550E-01  2.000E+01  2.000E+04 -3.846E-02
   1   12   19     1    19    1.1254E+05 -4.3098E+02   1.1297E+05  0.000E+00  0.000E+00  0.000E+00  3.98259E+01  1.555E-01  2.000E+01  2.000E+04 -2.155E-02
   1   13   20     1    20    1.1297E+05 -4.1671E+02   1.1339E+05  0.000E+00  0.000E+00  0.000E+00  3.93490E+01  1.558E-01  2.000E+01  2.000E+04 -2.084E-02
   1   14   21     1    21    1.1339E+05 -6.2750E+02   1.1402E+05  0.000E+00  0.000E+00  0.000E+00  3.88721E+01  1.562E-01  2.000E+01  2.000E+04 -3.138E-02
   1   14   22     1    22    1.1402E+05  5.1501E+03   1.0887E+05  0.000E+00  0.000E+00  0.000E+00  3.83930E+01  1.544E-01  2.000E+01  2.000E+04  2.575E-01
   1    9   30     2     1    5.0000E+04  3.4786E+02   4.9652E+04  0.000E+00  0.000E+00  0.000E+00  4.02406E+01  1.156E-01  2.000E+01  2.000E+04  1.739E-02
   1    9   29     2     2    4.9652E+04  1.4901E+02   4.9503E+04  0.000E+00  0.000E+00  0.000E+00  3.99903E+01  1.153E-01  2.000E+01  2.000E+04  7.450E-03
   1    9   28     2     3    4.9503E+04  1.3804E+02   4.9365E+04  0.000E+00  0.000E+00  0.000E+00  3.97401E+01  1.151E-01  2.000E+01  2.000E+04  6.902E-03
   1    9   27     2     4    4.9365E+04  2.5927E+02   4.9106E+04  0.000E+00  0.000E+00  0.000E+00  3.94898E+01  1.148E-01  2.000E+01  2.000E+04  1.296E-02
   1   10   26     2     5    4.9106E+04  3.2270E+02   4.8783E+04  0.000E+00  0.000E+00  0.000E+00  3.92394E+01  1.144E-01  2.000E+01  2.000E+04  1.614E-02
   1   11   25     2     6    4.8783E+04  2.2081E+02   4.8562E+04  0.000E+00  0.000E+00  0.000E+00  3.89890E+01  1.140E-01  2.000E+01  2.000E+04  1.104E-02
   1   12   24     2     7    4.8562E+04  3.2680E+01   4.8530E+04  0.000E+00  0.000E+00  0.000E+00  3.87388E+01  1.138E-01  2.000E+01  2.000E+04  1.634E-03
   1   13   23     2     8    4.8530E+04 -3.0621E+01   4.8560E+04  0.000E+00  0.000E+00  0.000E+00  3.84888E+01  1.138E-01  2.000E+01  2.000E+04 -1.531E-03
   1   14   22     2     9    4.8560E+04  2.0382E+03   4.6522E+04  0.000E+00  0.000E+00  0.000E+00  3.82374E+01  1.124E-01  2.000E+01  2.000E+04  1.019E-01
   1   14   22     3     1    1.5539E+05 -8.4209E+03   1.6381E+05  0.000E+00  0.000E+00  0.000E+00  3.77145E+01  1.589E-01  2.000E+01  2.000E+04 -4.210E-01
   1   15   23     3     2    1.6381E+05 -4.1239E+02   1.6422E+05  0.000E+00  0.000E+00  0.000E+00  3.68282E+01  1.615E-01  2.000E+01  2.000E+04 -2.062E-02
   1   15   24     3     3    1.6422E+05 -2.4035E+02   1.6446E+05  0.000E+00  0.000E+00  0.000E+00  3.59395E+01  1.617E-01  2.000E+01  2.000E+04 -1.202E-02
   1   15   25     3     4    1.6446E+05 -2.4539E+02   1.6471E+05  0.000E+00  0.000E+00  0.000E+00  3.50507E+01  1.619E-01  2.000E+01  2.000E+04 -1.227E-02
   1   15   26     3     5    1.6471E+05 -3.1466E+02   1.6502E+05  0.000E+00  0.000E+00  0.000E+00  3.41620E+01  1.620E-01  2.000E+01  2.000E+04 -1.573E-02
   1   16   27     3     6    1.6502E+05 -3.3185E+02   1.6535E+05  0.000E+00  0.000E+00  0.000E+00  3.32733E+01  1.622E-01  2.000E+01  2.000E+04 -1.659E-02
   1   17   28     3     7    1.6535E+05 -1.4079E+03   1.6676E+05  0.000E+00  0.000E+00  0.000E+00  3.23849E+01  1.627E-01  2.000E+01  2.000E+04 -7.040E-02
   1   18   29     3     8    1.6676E+05 -2.5723E+03   1.6933E+05  0.000E+00  0.000E+00  0.000E+00  3.14972E+01  1.639E-01  2.000E+01  2.000E+04 -1.286E-01
   1   18   30     3     9    1.6933E+05 -2.9819E+03   1.7232E+05  0.000E+00  0.000E+00  0.000E+00  3.06100E+01  1.655E-01  2.000E+01  2.000E+04 -1.491E-01



1
              HEAD IN LAYER   1 AT END OF TIME STEP   1 IN STRESS PERIOD   12
  ---------------------------------------------------------------------------

          1      2      3      4      5      6      7      8      9     10
         11     12     13     14     15     16     17     18     19     20
         21     22     23     24     25     26     27     28     29     30
 .........................................................................
   1  ****** ****** ****** ****** ****** ****** ****** ****** ****** ******
      ****** ****** ****** ****** ****** ****** ****** ****** ****** ******
      ****** ****** ****** ****** ****** ****** ****** ****** ****** ******
   2  ****** ****** ****** ****** ****** ****** ****** ****** ****** ******
      ****** ****** ****** ****** ****** ****** ****** ****** ****** ******
      ****** ****** ****** ****** ****** ****** ****** ****** ****** ******
   3  ****** ****** ****** ****** ****** ****** ****** ****** ****** ******
      ****** ****** ****** ****** ****** ****** ****** ****** ****** ******
      ****** ****** ****** ****** ****** ****** ****** ****** ****** ******
   4  ****** ****** ****** ****** ****** ****** ****** ****** ****** ******
      ****** ****** ****** ****** ****** ****** ****** ****** ****** ******
      ****** ****** ****** ****** ****** ****** ****** ****** ****** ******
   5  ****** ****** ****** ****** ****** ****** ****** ****** ****** ******
      ****** ****** ****** ****** ****** ****** ****** ****** ****** ******
      ****** ****** ****** ****** ****** ****** ****** ****** ****** ******
   6  ****** ****** ****** ****** ****** ****** ****** ****** ****** ******
      ****** ****** ****** ****** ****** ****** ****** ****** ****** ******
      ****** ****** ****** ****** ****** ****** ****** ****** ****** ******
   7  ****** ****** ****** ****** ****** ****** ****** ****** ****** ******
      ****** ****** ****** ****** ****** ****** ****** ****** ****** ******
      ****** ****** ****** ****** ****** ****** ****** ****** ****** ******
   8  ****** ****** ****** ****** ****** ****** ****** ****** ****** ******
      ****** ****** ****** ****** ****** ****** ****** ****** ****** ******
      ****** ****** ****** ****** ****** ****** ****** ****** ****** ******
   9  ****** ****** ****** ****** ****** ****** ****** ****** ****** ******
      ****** ****** ****** ****** ****** ****** ****** ****** ****** ******
      ****** ****** ****** ****** ****** ****** ****** ****** ****** ******
  10  ****** ****** ****** ****** ****** ****** ****** ****** ****** ******
      ****** ****** ****** ****** ****** ****** ****** ****** ****** ******
      ****** ****** ****** ****** ****** ****** ****** ****** ****** ******
  11  ****** ****** ****** ****** ****** ****** ****** ****** ****** ******
      ****** ****** ****** ****** ****** ****** ****** ****** ****** ******
      ****** ****** ****** ****** ****** ****** ****** ****** ****** ******
  12  ****** ****** ****** ****** ****** ****** ****** ****** ****** ******
      ****** ****** ****** ****** ****** ****** ****** ****** ****** ******
      ****** ****** ****** ****** ****** ****** ****** ****** ****** ******
  13  ****** ****** ****** ****** ****** ****** ****** ****** ****** ******
      ****** ****** ****** ****** ****** ****** ****** ****** ****** ******
      ****** ****** ****** ****** ****** ****** ****** ****** ****** ******
  14  ****** ****** ****** ****** ****** ****** ****** ****** ****** ******
      ****** ****** ****** ****** ****** ****** ****** ****** ****** ******
      ****** ****** ****** ****** ****** ****** ****** ****** ****** ******
  15  ****** ****** ****** ****** ****** ****** ****** ****** ****** ******
      ****** ****** ****** ****** ****** ****** ****** ****** ****** ******
      ****** ****** ****** ****** ****** ****** ****** ****** ****** ******
  16  ****** ****** ****** ****** ****** ****** ****** ****** ****** ******
      ****** ****** ****** ****** ****** ****** ****** ****** ****** ******
      ****** ****** ****** ****** ****** ****** ****** ****** ****** ******
  17  ****** ****** ****** ****** ****** ****** ****** ****** ****** ******
      ****** ****** ****** ****** ****** ****** ****** ****** ****** ******
      ****** ****** ****** ****** ****** ****** ****** ****** ****** ******
  18  ****** ****** ****** ****** ****** ****** ****** ****** ****** ******
      ****** ****** ****** ****** ****** ****** ****** ****** ****** ******
      ****** ****** ****** ****** ****** ****** ****** ****** ****** ******
  19  ****** ****** ****** ****** ****** ****** ****** ****** ****** ******
      ****** ****** ****** ****** ****** ****** ****** ****** ****** ******
      ****** ****** ****** ****** ****** ****** ****** ****** ****** ******
  20  ****** ****** ****** ****** ****** ****** ****** ****** ****** ******
      ****** ****** ****** ****** ****** ****** ****** ****** ****** ******
      ****** ****** ****** ****** ****** ****** ****** ****** ****** ******
  21  ****** ****** ****** ****** ****** ****** ****** ****** ****** ******
      ****** ****** ****** ****** ****** ****** ****** ****** ****** ******
      ****** ****** ****** ****** ****** ****** ****** ****** ****** ******
  22  ****** ****** ****** ****** ****** ****** ****** ****** ****** ******
      ****** ****** ****** ****** ****** ****** ****** ****** ****** ******
      ****** ****** ****** ****** ****** ****** ****** ****** ****** ******
  23  ****** ****** ****** ****** ****** ****** ****** ****** ****** ******
      ****** ****** ****** ****** ****** ****** ****** ****** ****** ******
      ****** ****** ****** ****** ****** ****** ****** ****** ****** ******
  24  ****** ****** ****** ****** ****** ****** ****** ****** ****** ******
      ****** ****** ****** ****** ****** ****** ****** ****** ****** ******
      ****** ****** ****** ****** ****** ****** ****** ****** ****** ******
  25  ****** ****** ****** ****** ****** ****** ****** ****** ****** ******
      ****** ****** ****** ****** ****** ****** ****** ****** ****** ******
      ****** ****** ****** ****** ****** ****** ****** ****** ****** ******

 HEAD WILL BE SAVED ON UNIT   51 AT END OF TIME STEP    1, STRESS PERIOD   12
1
  VOLUMETRIC BUDGET FOR ENTIRE MODEL AT END OF TIME STEP    1, STRESS PERIOD  12
  ------------------------------------------------------------------------------

     CUMULATIVE VOLUMES      L**3       RATES FOR THIS TIME STEP      L**3/T
     ------------------                 ------------------------

           IN:                                      IN:
           ---                                      ---
             STORAGE =    36994108.7612               STORAGE =          10.3855
       CONSTANT HEAD =    34459797.0180         CONSTANT HEAD =       36931.3663
               WELLS =           0.0000                 WELLS =           0.0000
            RECHARGE =    26413200.0000              RECHARGE =       27600.0000
      STREAM LEAKAGE =     9091217.5872        STREAM LEAKAGE =        9801.0801

            TOTAL IN =   106958323.3664              TOTAL IN =       74342.8320

          OUT:                                     OUT:
          ----                                     ----
             STORAGE =     2604823.8142               STORAGE =        3008.7177
       CONSTANT HEAD =           0.0000         CONSTANT HEAD =           0.0000
               WELLS =    42942397.8600                 WELLS =       39216.8017
            RECHARGE =           0.0000              RECHARGE =           0.0000
      STREAM LEAKAGE =    61411103.7814        STREAM LEAKAGE =       32117.3118

           TOTAL OUT =   106958325.4556             TOTAL OUT =       74342.8313

            IN - OUT =          -2.0892              IN - OUT =       6.7224E-04

 PERCENT DISCREPANCY =          -0.00     PERCENT DISCREPANCY =           0.00






         TIME SUMMARY AT END OF TIME STEP    1 IN STRESS PERIOD   12
                    SECONDS     MINUTES      HOURS       DAYS        YEARS
                    -----------------------------------------------------------
   TIME STEP LENGTH 7.86240E+06 1.31040E+05  2184.0      91.000     0.24914    
 STRESS PERIOD TIME 7.86240E+06 1.31040E+05  2184.0      91.000     0.24914    
         TOTAL TIME 9.46080E+07 1.57680E+06  26280.      1095.0      2.9979    
1

 Run end date and time (yyyy/mm/dd hh:mm:ss): 2019/06/07 22:53:43
 Elapsed run time:  0.175 Seconds

