                                  MODFLOW-2005     
      U.S. GEOLOGICAL SURVEY MODULAR FINITE-DIFFERENCE GROUND-WATER FLOW MODEL
                            VERSION 1.11.00 8/8/2013

 LIST FILE: supply2.lst
                         UNIT   10

 OPENING ..\data\supply.dis
 FILE TYPE:DIS   UNIT   11   STATUS:OLD    
 FORMAT:FORMATTED              ACCESS:SEQUENTIAL          

 OPENING ..\data\supply.ba6
 FILE TYPE:BAS6   UNIT   12   STATUS:OLD    
 FORMAT:FORMATTED              ACCESS:SEQUENTIAL          

 OPENING ..\data\supply_het.bc6
 FILE TYPE:BCF6   UNIT   13   STATUS:OLD    
 FORMAT:FORMATTED              ACCESS:SEQUENTIAL          

 OPENING ..\data\supply.rch
 FILE TYPE:RCH   UNIT   15   STATUS:OLD    
 FORMAT:FORMATTED              ACCESS:SEQUENTIAL          

 OPENING ..\data\supply2.sfr
 FILE TYPE:SFR   UNIT   16   STATUS:OLD    
 FORMAT:FORMATTED              ACCESS:SEQUENTIAL          

 OPENING ..\data\supply.oc
 FILE TYPE:OC   UNIT   17   STATUS:OLD    
 FORMAT:FORMATTED              ACCESS:SEQUENTIAL          

 OPENING ..\data\supply.pcg
 FILE TYPE:PCG   UNIT   18   STATUS:OLD    
 FORMAT:FORMATTED              ACCESS:SEQUENTIAL          

 OPENING supply2.wel
 FILE TYPE:WEL   UNIT   19   STATUS:OLD    
 FORMAT:FORMATTED              ACCESS:SEQUENTIAL          

 OPENING supply2sf.cbc
 FILE TYPE:DATA(BINARY)   UNIT   50   STATUS:UNKNOWN
 FORMAT:BINARY                 ACCESS:SEQUENTIAL          

 OPENING supply2hd.bhd
 FILE TYPE:DATA(BINARY)   UNIT   51   STATUS:UNKNOWN
 FORMAT:BINARY                 ACCESS:SEQUENTIAL          

 BAS -- BASIC PACKAGE, VERSION 7, 5/2/2005 INPUT READ FROM UNIT   12
 
 MODFLOW was compiled using uniform precision
 Precision of REAL and DOUBLE PRECISION variables:          15

 DISCRETIZATION INPUT DATA READ FROM UNIT   11
    1 LAYERS        25 ROWS        30 COLUMNS
   12 STRESS PERIOD(S) IN SIMULATION
 MODEL TIME UNIT IS DAYS
 MODEL LENGTH UNIT IS UNDEFINED
  Confining bed flag for each layer:
   0

                     DELR =   200.000    

                     DELC =   200.000    

 TOP ELEVATION OF LAYER 1 =  100.0000    

   MODEL LAYER BOTTOM EL. =   0.00000     FOR LAYER   1


 STRESS PERIOD     LENGTH       TIME STEPS     MULTIPLIER FOR DELT    SS FLAG
 ----------------------------------------------------------------------------
        1         92.00000          1                    1.500         TR
        2         91.00000          1                    1.500         TR
        3         91.00000          1                    1.500         TR
        4         91.00000          1                    1.500         TR
        5         92.00000          1                    1.500         TR
        6         91.00000          1                    1.500         TR
        7         91.00000          1                    1.500         TR
        8         91.00000          1                    1.500         TR
        9         92.00000          1                    1.500         TR
       10         91.00000          1                    1.500         TR
       11         91.00000          1                    1.500         TR
       12         91.00000          1                    1.500         TR

 TRANSIENT SIMULATION



 
 #MODOFC transient water supply sample problem                                   
 #                                                                               
 THE FREE FORMAT OPTION HAS BEEN SELECTED



                     BOUNDARY ARRAY FOR LAYER   1
 READING ON UNIT   12 WITH FORMAT: (20I4)              

 AQUIFER HEAD WILL BE SET TO   0.0000     AT ALL NO-FLOW NODES (IBOUND=0).



                       INITIAL HEAD FOR LAYER   1
 READING ON UNIT   12 WITH FORMAT: (10F13.0)           

 OUTPUT CONTROL IS SPECIFIED ONLY AT TIME STEPS FOR WHICH OUTPUT IS DESIRED
 COMPACT CELL-BY-CELL BUDGET FILES WILL BE WRITTEN
 HEAD PRINT FORMAT CODE IS  18    DRAWDOWN PRINT FORMAT CODE IS   0
 HEADS WILL BE SAVED ON UNIT   51    DRAWDOWNS WILL BE SAVED ON UNIT    0

 BCF -- BLOCK-CENTERED FLOW PACKAGE, VERSION 7, 5/2/2005
         INPUT READ FROM UNIT 13
 TRANSIENT SIMULATION
 HEAD AT CELLS THAT CONVERT TO DRY=   0.0000    
 WETTING CAPABILITY IS NOT ACTIVE
      LAYER  LAYER-TYPE CODE     INTERBLOCK T
      --------------------------------------------
         1            0          0 -- HARMONIC    

 COLUMN TO ROW ANISOTROPY =  1.000000    

     PRIMARY STORAGE COEF =  5.000000E-02 FOR LAYER   1



               TRANSMIS. ALONG ROWS FOR LAYER   1
 READING ON UNIT   13 WITH FORMAT: (FREE)              

 WEL -- WELL PACKAGE, VERSION 7, 5/2/2005 INPUT READ FROM UNIT   19
 # Well package input file written by MMProc
 No named parameters
 MAXIMUM OF      4 ACTIVE WELLS AT ONE TIME


     0 Well parameters

 RCH -- RECHARGE PACKAGE, VERSION 7, 5/2/2005 INPUT READ FROM UNIT   15
 No named parameters
 OPTION 1 -- RECHARGE TO TOP LAYER


     0 Recharge parameters

 SFR7 -- STREAMFLOW ROUTING PACKAGE, VERSION 1.0.7, 2013-01-15
         INPUT READ FROM UNIT  16
 #  Supply2 test problem for GWM-VI
 #  The eighth entry in the first data line is ISTCB2 -
 #    Setting this to a negative number indicates that
 #    streamflows out of the reach will be saved to a
 #    binary file.  The absolute value of ISTCB2 is the
 #    unit to which unformatted flows will be written.
 #
 No named parameters
 Segment information will not be 
 read by reach
 No named parameters
 No specifed inflow files


 NUMBER OF STREAM REACHES IS   40

 NUMBER OF STREAM SEGMENTS IS    3

 NUMBER OF STREAM PARAMETERS IS    0

 NUMBER OF STREAM SEGMENTS DEFINED USING PARAMETERS IS              0

 MAXIMUM ERROR FOR STREAM LEAKAGE RATES IS  1.00E-04

 CONSTANT FOR MANNINGS EQUATION IS  1.2839E+05





   STREAM NETWORK DESCRIPTION: 

   LAYER    ROW    COL   SEGMENT   REACH     LENGTH
                          NUMBER   NUMBER    IN CELL        
   --------------------------------------------------
      1     13      1       1        1    2.0000E+02
      1     13      2       1        2    2.0000E+02
      1     14      3       1        3    2.0000E+02
      1     15      4       1        4    2.0000E+02
      1     16      5       1        5    2.0000E+02
      1     16      6       1        6    2.0000E+02
      1     16      7       1        7    2.0000E+02
      1     16      8       1        8    2.0000E+02
      1     16      9       1        9    2.0000E+02
      1     16     10       1       10    2.0000E+02
      1     16     11       1       11    2.0000E+02
      1     16     12       1       12    2.0000E+02
      1     15     13       1       13    2.0000E+02
      1     14     14       1       14    2.0000E+02
      1     13     15       1       15    2.0000E+02
      1     12     16       1       16    2.0000E+02
      1     12     17       1       17    2.0000E+02
      1     12     18       1       18    2.0000E+02
      1     12     19       1       19    2.0000E+02
      1     13     20       1       20    2.0000E+02
      1     14     21       1       21    2.0000E+02
      1     14     22       1       22    2.0000E+02
      1      9     30       2        1    2.0000E+02
      1      9     29       2        2    2.0000E+02
      1      9     28       2        3    2.0000E+02
      1      9     27       2        4    2.0000E+02
      1     10     26       2        5    2.0000E+02
      1     11     25       2        6    2.0000E+02
      1     12     24       2        7    2.0000E+02
      1     13     23       2        8    2.0000E+02
      1     14     22       2        9    2.0000E+02
      1     14     22       3        1    2.0000E+02
      1     15     23       3        2    2.0000E+02
      1     15     24       3        3    2.0000E+02
      1     15     25       3        4    2.0000E+02
      1     15     26       3        5    2.0000E+02
      1     16     27       3        6    2.0000E+02
      1     17     28       3        7    2.0000E+02
      1     18     29       3        8    2.0000E+02
      1     18     30       3        9    2.0000E+02




 PCG -- CONJUGATE-GRADIENT SOLUTION PACKAGE, VERSION 7, 5/2/2005
 MAXIMUM OF    500 CALLS OF SOLUTION ROUTINE
 MAXIMUM OF      5 INTERNAL ITERATIONS PER CALL TO SOLUTION ROUTINE
 MATRIX PRECONDITIONING TYPE :    1



                                    SOLUTION BY THE CONJUGATE-GRADIENT METHOD
                                   -------------------------------------------
                    MAXIMUM NUMBER OF CALLS TO PCG ROUTINE =      500
                        MAXIMUM ITERATIONS PER CALL TO PCG =        5
                               MATRIX PRECONDITIONING TYPE =        1
        RELAXATION FACTOR (ONLY USED WITH PRECOND. TYPE 1) =    0.10000E+01
 PARAMETER OF POLYNOMIAL PRECOND. = 2 (2) OR IS CALCULATED :        0
                         HEAD CHANGE CRITERION FOR CLOSURE =    0.10000E-05
                     RESIDUAL CHANGE CRITERION FOR CLOSURE =    0.10000E+01
            PCG HEAD AND RESIDUAL CHANGE PRINTOUT INTERVAL =        1
     PRINTING FROM SOLVER IS LIMITED(1) OR SUPPRESSED (>1) =        1
                            STEADY-STATE DAMPING PARAMETER =    0.10000E+01
                               TRANSIENT DAMPING PARAMETER =    0.10000E+01
1
                            STRESS PERIOD NO.    1, LENGTH =   92.00000    
                            -----------------------------------------------

                              NUMBER OF TIME STEPS =     1

                               MULTIPLIER FOR DELT =     1.500

                            INITIAL TIME STEP SIZE =   92.00000    

 WELL NO.  LAYER   ROW   COL   STRESS RATE         
 --------------------------------------------------
      1      1      6     26      -9457.    
      2      1     23      4      -2056.    
      3      1     12     10      -1573.    
      4      1      4      5     -0.1159E+05

      4 WELLS

                 RECHARGE =  5.000000E-04



 CLASSIFICATION & COUNT OF STREAM SEGMENTS BASED ON SOURCE OF INFLOW:

                HEADWATER     DIVERSION     RECEIVES TRIBUTARY FLOW
                ---------     ---------     -----------------------
                     2              0               1



                    INPUT DATA FOR EACH STREAM SEGMENT
 ---------------------------------------------------------------------------------------------

 SEGMENT    SEG.     INFLOW   OVERLAND   STREAM    STREAM   ICALC  OUTFLOW  DIVERSION PRIORITY
    NO.    LENGTH     RATE     RUNOFF      ET       PPT.    METH.  TO SEG.  FROM SEG.    NO.

      1  4.400E+03 1.000E+05 0.000E+00 0.000E+00 0.000E+00    1        3        0        0
      2  1.800E+03 5.000E+04 0.000E+00 0.000E+00 0.000E+00    1        3        0        0
      3  1.800E+03 0.000E+00 0.000E+00 0.000E+00 0.000E+00    1        0        0        0


         STREAMBED PROPERTIES AND STREAM DIMENSIONS

 SEGMENT     BED HYD. COND.      BED THICKNESS     ELEV.-TOP OF BED     WIDTH OF STREAM     DEPTH OF STREAM    STREAM ROUGHNESS
    No.     UPPER     LOWER     UPPER     LOWER     UPPER     LOWER     UPPER     LOWER     UPPER     LOWER   CHANNEL      BANK

     1  5.000E+00 5.000E+00 1.000E+00 1.000E+00 4.850E+01 3.800E+01 2.000E+01 2.000E+01                     5.000E-02
     2  5.000E+00 5.000E+00 1.000E+00 1.000E+00 4.025E+01 3.800E+01 2.000E+01 2.000E+01                     5.000E-02
     3  5.000E+00 5.000E+00 1.000E+00 1.000E+00 3.800E+01 3.000E+01 2.000E+01 2.000E+01                     5.000E-02



 
 SOLVING FOR HEAD 


     9 CALLS TO PCG ROUTINE FOR TIME STEP   1 IN STRESS PERIOD    1
    36 TOTAL ITERATIONS

 OUTPUT CONTROL FOR STRESS PERIOD    1   TIME STEP    1
    SAVE BUDGET
    SAVE HEAD FOR ALL LAYERS
    PRINT HEAD FOR ALL LAYERS
 UBDSV2 SAVING "STREAMFLOW OUT  " ON UNIT  50 AT TIME STEP  1, STRESS PERIOD   1



 STREAM LISTING     PERIOD      1   STEP        1

 LAYER ROW COL. STREAM  RCH.  FLOW INTO     FLOW TO   FLOW OUT OF   OVRLND.     DIRECT     STREAM       STREAM     STREAM     STREAM   STREAMBED  STREAMBED
                SEG.NO.  NO.  STRM. RCH.    AQUIFER    STRM. RCH.    RUNOFF     PRECIP       ET          HEAD       DEPTH      WIDTH   CONDCTNC.   GRADIENT

   1   13    1     1     1    1.0000E+05 -5.8087E+03   1.0581E+05  0.000E+00  0.000E+00  0.000E+00  4.84085E+01  1.472E-01  2.000E+01  2.000E+04 -2.904E-01
   1   13    2     1     2    1.0581E+05 -7.2718E+03   1.1308E+05  0.000E+00  0.000E+00  0.000E+00  4.79368E+01  1.527E-01  2.000E+01  2.000E+04 -3.636E-01
   1   14    3     1     3    1.1308E+05 -2.1778E+03   1.1526E+05  0.000E+00  0.000E+00  0.000E+00  4.74634E+01  1.566E-01  2.000E+01  2.000E+04 -1.089E-01
   1   15    4     1     4    1.1526E+05 -2.2491E+03   1.1751E+05  0.000E+00  0.000E+00  0.000E+00  4.69880E+01  1.584E-01  2.000E+01  2.000E+04 -1.125E-01
   1   16    5     1     5    1.1751E+05 -7.0571E+03   1.2456E+05  0.000E+00  0.000E+00  0.000E+00  4.65145E+01  1.622E-01  2.000E+01  2.000E+04 -3.529E-01
   1   16    6     1     6    1.2456E+05 -4.2417E+03   1.2881E+05  0.000E+00  0.000E+00  0.000E+00  4.60417E+01  1.667E-01  2.000E+01  2.000E+04 -2.121E-01
   1   16    7     1     7    1.2881E+05 -4.0869E+03   1.3289E+05  0.000E+00  0.000E+00  0.000E+00  4.55677E+01  1.700E-01  2.000E+01  2.000E+04 -2.043E-01
   1   16    8     1     8    1.3289E+05 -4.0510E+03   1.3694E+05  0.000E+00  0.000E+00  0.000E+00  4.50936E+01  1.731E-01  2.000E+01  2.000E+04 -2.026E-01
   1   16    9     1     9    1.3694E+05 -4.0424E+03   1.4099E+05  0.000E+00  0.000E+00  0.000E+00  4.46194E+01  1.762E-01  2.000E+01  2.000E+04 -2.021E-01
   1   16   10     1    10    1.4099E+05 -4.0447E+03   1.4503E+05  0.000E+00  0.000E+00  0.000E+00  4.41452E+01  1.793E-01  2.000E+01  2.000E+04 -2.022E-01
   1   16   11     1    11    1.4503E+05 -4.0981E+03   1.4913E+05  0.000E+00  0.000E+00  0.000E+00  4.36710E+01  1.823E-01  2.000E+01  2.000E+04 -2.049E-01
   1   16   12     1    12    1.4913E+05 -6.9718E+03   1.5610E+05  0.000E+00  0.000E+00  0.000E+00  4.31978E+01  1.864E-01  2.000E+01  2.000E+04 -3.486E-01
   1   15   13     1    13    1.5610E+05 -7.2477E+03   1.6335E+05  0.000E+00  0.000E+00  0.000E+00  4.27257E+01  1.916E-01  2.000E+01  2.000E+04 -3.624E-01
   1   14   14     1    14    1.6335E+05 -7.7315E+03   1.7108E+05  0.000E+00  0.000E+00  0.000E+00  4.22537E+01  1.969E-01  2.000E+01  2.000E+04 -3.866E-01
   1   13   15     1    15    1.7108E+05 -8.0836E+03   1.7916E+05  0.000E+00  0.000E+00  0.000E+00  4.17820E+01  2.025E-01  2.000E+01  2.000E+04 -4.042E-01
   1   12   16     1    16    1.7916E+05 -8.7343E+03   1.8790E+05  0.000E+00  0.000E+00  0.000E+00  4.13105E+01  2.082E-01  2.000E+01  2.000E+04 -4.367E-01
   1   12   17     1    17    1.8790E+05 -6.2478E+03   1.9415E+05  0.000E+00  0.000E+00  0.000E+00  4.08383E+01  2.133E-01  2.000E+01  2.000E+04 -3.124E-01
   1   12   18     1    18    1.9415E+05 -6.0953E+03   2.0024E+05  0.000E+00  0.000E+00  0.000E+00  4.03651E+01  2.174E-01  2.000E+01  2.000E+04 -3.048E-01
   1   12   19     1    19    2.0024E+05 -7.6373E+03   2.0788E+05  0.000E+00  0.000E+00  0.000E+00  3.98924E+01  2.219E-01  2.000E+01  2.000E+04 -3.819E-01
   1   13   20     1    20    2.0788E+05 -6.7996E+03   2.1468E+05  0.000E+00  0.000E+00  0.000E+00  3.94198E+01  2.266E-01  2.000E+01  2.000E+04 -3.400E-01
   1   14   21     1    21    2.1468E+05 -6.4256E+03   2.2110E+05  0.000E+00  0.000E+00  0.000E+00  3.89467E+01  2.308E-01  2.000E+01  2.000E+04 -3.213E-01
   1   14   22     1    22    2.2110E+05  3.6800E+03   2.1742E+05  0.000E+00  0.000E+00  0.000E+00  3.84703E+01  2.317E-01  2.000E+01  2.000E+04  1.840E-01
   1    9   30     2     1    5.0000E+04 -4.4228E+03   5.4423E+04  0.000E+00  0.000E+00  0.000E+00  4.02439E+01  1.189E-01  2.000E+01  2.000E+04 -2.211E-01
   1    9   29     2     2    5.4423E+04 -4.6451E+03   5.9068E+04  0.000E+00  0.000E+00  0.000E+00  4.00000E+01  1.250E-01  2.000E+01  2.000E+04 -2.323E-01
   1    9   28     2     3    5.9068E+04 -4.7661E+03   6.3834E+04  0.000E+00  0.000E+00  0.000E+00  3.97561E+01  1.311E-01  2.000E+01  2.000E+04 -2.383E-01
   1    9   27     2     4    6.3834E+04 -6.9931E+03   7.0827E+04  0.000E+00  0.000E+00  0.000E+00  3.95135E+01  1.385E-01  2.000E+01  2.000E+04 -3.497E-01
   1   10   26     2     5    7.0827E+04 -6.6740E+03   7.7501E+04  0.000E+00  0.000E+00  0.000E+00  3.92718E+01  1.468E-01  2.000E+01  2.000E+04 -3.337E-01
   1   11   25     2     6    7.7501E+04 -6.4577E+03   8.3959E+04  0.000E+00  0.000E+00  0.000E+00  3.90295E+01  1.545E-01  2.000E+01  2.000E+04 -3.229E-01
   1   12   24     2     7    8.3959E+04 -6.1173E+03   9.0076E+04  0.000E+00  0.000E+00  0.000E+00  3.87866E+01  1.616E-01  2.000E+01  2.000E+04 -3.059E-01
   1   13   23     2     8    9.0076E+04 -1.6342E+03   9.1710E+04  0.000E+00  0.000E+00  0.000E+00  3.85408E+01  1.658E-01  2.000E+01  2.000E+04 -8.171E-02
   1   14   22     2     9    9.1710E+04  1.0702E+02   9.1603E+04  0.000E+00  0.000E+00  0.000E+00  3.82917E+01  1.667E-01  2.000E+01  2.000E+04  5.351E-03
   1   14   22     3     1    3.0903E+05 -9.8462E+03   3.1887E+05  0.000E+00  0.000E+00  0.000E+00  3.77940E+01  2.385E-01  2.000E+01  2.000E+04 -4.923E-01
   1   15   23     3     2    3.1887E+05 -1.9893E+03   3.2086E+05  0.000E+00  0.000E+00  0.000E+00  3.69078E+01  2.411E-01  2.000E+01  2.000E+04 -9.947E-02
   1   15   24     3     3    3.2086E+05 -1.5300E+03   3.2239E+05  0.000E+00  0.000E+00  0.000E+00  3.60197E+01  2.419E-01  2.000E+01  2.000E+04 -7.650E-02
   1   15   25     3     4    3.2239E+05 -1.5794E+03   3.2397E+05  0.000E+00  0.000E+00  0.000E+00  3.51315E+01  2.426E-01  2.000E+01  2.000E+04 -7.897E-02
   1   15   26     3     5    3.2397E+05 -1.8825E+03   3.2585E+05  0.000E+00  0.000E+00  0.000E+00  3.42434E+01  2.434E-01  2.000E+01  2.000E+04 -9.413E-02
   1   16   27     3     6    3.2585E+05 -2.1642E+03   3.2802E+05  0.000E+00  0.000E+00  0.000E+00  3.33554E+01  2.443E-01  2.000E+01  2.000E+04 -1.082E-01
   1   17   28     3     7    3.2802E+05 -6.5783E+03   3.3460E+05  0.000E+00  0.000E+00  0.000E+00  3.24685E+01  2.463E-01  2.000E+01  2.000E+04 -3.289E-01
   1   18   29     3     8    3.3460E+05 -7.9939E+03   3.4259E+05  0.000E+00  0.000E+00  0.000E+00  3.15829E+01  2.495E-01  2.000E+01  2.000E+04 -3.997E-01
   1   18   30     3     9    3.4259E+05 -7.1740E+03   3.4977E+05  0.000E+00  0.000E+00  0.000E+00  3.06973E+01  2.529E-01  2.000E+01  2.000E+04 -3.587E-01



1
              HEAD IN LAYER   1 AT END OF TIME STEP   1 IN STRESS PERIOD    1
  ---------------------------------------------------------------------------

          1      2      3      4      5      6      7      8      9     10
         11     12     13     14     15     16     17     18     19     20
         21     22     23     24     25     26     27     28     29     30
 .........................................................................
   1  ****** ****** ****** ****** ****** ****** ****** ****** ****** ******
      ****** ****** ****** ****** ****** ****** ****** ****** ****** ******
      ****** ****** ****** ****** ****** ****** ****** ****** ****** ******
   2  ****** ****** ****** ****** ****** ****** ****** ****** ****** ******
      ****** ****** ****** ****** ****** ****** ****** ****** ****** ******
      ****** ****** ****** ****** ****** ****** ****** ****** ****** ******
   3  ****** ****** ****** ****** ****** ****** ****** ****** ****** ******
      ****** ****** ****** ****** ****** ****** ****** ****** ****** ******
      ****** ****** ****** ****** ****** ****** ****** ****** ****** ******
   4  ****** ****** ****** ****** ****** ****** ****** ****** ****** ******
      ****** ****** ****** ****** ****** ****** ****** ****** ****** ******
      ****** ****** ****** ****** ****** ****** ****** ****** ****** ******
   5  ****** ****** ****** ****** ****** ****** ****** ****** ****** ******
      ****** ****** ****** ****** ****** ****** ****** ****** ****** ******
      ****** ****** ****** ****** ****** ****** ****** ****** ****** ******
   6  ****** ****** ****** ****** ****** ****** ****** ****** ****** ******
      ****** ****** ****** ****** ****** ****** ****** ****** ****** ******
      ****** ****** ****** ****** ****** ****** ****** ****** ****** ******
   7  ****** ****** ****** ****** ****** ****** ****** ****** ****** ******
      ****** ****** ****** ****** ****** ****** ****** ****** ****** ******
      ****** ****** ****** ****** ****** ****** ****** ****** ****** ******
   8  ****** ****** ****** ****** ****** ****** ****** ****** ****** ******
      ****** ****** ****** ****** ****** ****** ****** ****** ****** ******
      ****** ****** ****** ****** ****** ****** ****** ****** ****** ******
   9  ****** ****** ****** ****** ****** ****** ****** ****** ****** ******
      ****** ****** ****** ****** ****** ****** ****** ****** ****** ******
      ****** ****** ****** ****** ****** ****** ****** ****** ****** ******
  10  ****** ****** ****** ****** ****** ****** ****** ****** ****** ******
      ****** ****** ****** ****** ****** ****** ****** ****** ****** ******
      ****** ****** ****** ****** ****** ****** ****** ****** ****** ******
  11  ****** ****** ****** ****** ****** ****** ****** ****** ****** ******
      ****** ****** ****** ****** ****** ****** ****** ****** ****** ******
      ****** ****** ****** ****** ****** ****** ****** ****** ****** ******
  12  ****** ****** ****** ****** ****** ****** ****** ****** ****** ******
      ****** ****** ****** ****** ****** ****** ****** ****** ****** ******
      ****** ****** ****** ****** ****** ****** ****** ****** ****** ******
  13  ****** ****** ****** ****** ****** ****** ****** ****** ****** ******
      ****** ****** ****** ****** ****** ****** ****** ****** ****** ******
      ****** ****** ****** ****** ****** ****** ****** ****** ****** ******
  14  ****** ****** ****** ****** ****** ****** ****** ****** ****** ******
      ****** ****** ****** ****** ****** ****** ****** ****** ****** ******
      ****** ****** ****** ****** ****** ****** ****** ****** ****** ******
  15  ****** ****** ****** ****** ****** ****** ****** ****** ****** ******
      ****** ****** ****** ****** ****** ****** ****** ****** ****** ******
      ****** ****** ****** ****** ****** ****** ****** ****** ****** ******
  16  ****** ****** ****** ****** ****** ****** ****** ****** ****** ******
      ****** ****** ****** ****** ****** ****** ****** ****** ****** ******
      ****** ****** ****** ****** ****** ****** ****** ****** ****** ******
  17  ****** ****** ****** ****** ****** ****** ****** ****** ****** ******
      ****** ****** ****** ****** ****** ****** ****** ****** ****** ******
      ****** ****** ****** ****** ****** ****** ****** ****** ****** ******
  18  ****** ****** ****** ****** ****** ****** ****** ****** ****** ******
      ****** ****** ****** ****** ****** ****** ****** ****** ****** ******
      ****** ****** ****** ****** ****** ****** ****** ****** ****** ******
  19  ****** ****** ****** ****** ****** ****** ****** ****** ****** ******
      ****** ****** ****** ****** ****** ****** ****** ****** ****** ******
      ****** ****** ****** ****** ****** ****** ****** ****** ****** ******
  20  ****** ****** ****** ****** ****** ****** ****** ****** ****** ******
      ****** ****** ****** ****** ****** ****** ****** ****** ****** ******
      ****** ****** ****** ****** ****** ****** ****** ****** ****** ******
  21  ****** ****** ****** ****** ****** ****** ****** ****** ****** ******
      ****** ****** ****** ****** ****** ****** ****** ****** ****** ******
      ****** ****** ****** ****** ****** ****** ****** ****** ****** ******
  22  ****** ****** ****** ****** ****** ****** ****** ****** ****** ******
      ****** ****** ****** ****** ****** ****** ****** ****** ****** ******
      ****** ****** ****** ****** ****** ****** ****** ****** ****** ******
  23  ****** ****** ****** ****** ****** ****** ****** ****** ****** ******
      ****** ****** ****** ****** ****** ****** ****** ****** ****** ******
      ****** ****** ****** ****** ****** ****** ****** ****** ****** ******
  24  ****** ****** ****** ****** ****** ****** ****** ****** ****** ******
      ****** ****** ****** ****** ****** ****** ****** ****** ****** ******
      ****** ****** ****** ****** ****** ****** ****** ****** ****** ******
  25  ****** ****** ****** ****** ****** ****** ****** ****** ****** ******
      ****** ****** ****** ****** ****** ****** ****** ****** ****** ******
      ****** ****** ****** ****** ****** ****** ****** ****** ****** ******

 HEAD WILL BE SAVED ON UNIT   51 AT END OF TIME STEP    1, STRESS PERIOD    1
1
  VOLUMETRIC BUDGET FOR ENTIRE MODEL AT END OF TIME STEP    1, STRESS PERIOD   1
  ------------------------------------------------------------------------------

     CUMULATIVE VOLUMES      L**3       RATES FOR THIS TIME STEP      L**3/T
     ------------------                 ------------------------

           IN:                                      IN:
           ---                                      ---
             STORAGE =    18115099.9930               STORAGE =      196903.2608
       CONSTANT HEAD =     1263808.5106         CONSTANT HEAD =       13737.0490
               WELLS =           0.0000                 WELLS =           0.0000
            RECHARGE =     1269600.0000              RECHARGE =       13800.0000
      STREAM LEAKAGE =      348407.3579        STREAM LEAKAGE =        3787.0365

            TOTAL IN =    20996915.8615              TOTAL IN =      228227.3463

          OUT:                                     OUT:
          ----                                     ----
             STORAGE =           0.0000               STORAGE =           0.0000
       CONSTANT HEAD =           0.0000         CONSTANT HEAD =           0.0000
               WELLS =     2270117.2017                 WELLS =       24675.1870
            RECHARGE =           0.0000              RECHARGE =           0.0000
      STREAM LEAKAGE =    18726798.9376        STREAM LEAKAGE =      203552.1624

           TOTAL OUT =    20996916.1393             TOTAL OUT =      228227.3493

            IN - OUT =          -0.2778              IN - OUT =      -3.0196E-03

 PERCENT DISCREPANCY =          -0.00     PERCENT DISCREPANCY =          -0.00






         TIME SUMMARY AT END OF TIME STEP    1 IN STRESS PERIOD    1
                    SECONDS     MINUTES      HOURS       DAYS        YEARS
                    -----------------------------------------------------------
   TIME STEP LENGTH 7.94880E+06 1.32480E+05  2208.0      92.000     0.25188    
 STRESS PERIOD TIME 7.94880E+06 1.32480E+05  2208.0      92.000     0.25188    
         TOTAL TIME 7.94880E+06 1.32480E+05  2208.0      92.000     0.25188    
1
1
                            STRESS PERIOD NO.    2, LENGTH =   91.00000    
                            -----------------------------------------------

                              NUMBER OF TIME STEPS =     1

                               MULTIPLIER FOR DELT =     1.500

                            INITIAL TIME STEP SIZE =   91.00000    

 WELL NO.  LAYER   ROW   COL   STRESS RATE         
 --------------------------------------------------
      1      1      6     26      -9457.    
      2      1     23      4      -2056.    
      3      1     12     10      -1573.    
      4      1      4      5     -0.1159E+05

      4 WELLS

                 RECHARGE =  2.000000E-03

 REUSING STREAM SEGMENT DATA FROM LAST STRESS PERIOD
 
 SOLVING FOR HEAD 


     7 CALLS TO PCG ROUTINE FOR TIME STEP   1 IN STRESS PERIOD    2
    27 TOTAL ITERATIONS

 OUTPUT CONTROL FOR STRESS PERIOD    2   TIME STEP    1
    SAVE BUDGET
    SAVE HEAD FOR ALL LAYERS
    PRINT HEAD FOR ALL LAYERS
 UBDSV2 SAVING "STREAMFLOW OUT  " ON UNIT  50 AT TIME STEP  1, STRESS PERIOD   2



 STREAM LISTING     PERIOD      2   STEP        1

 LAYER ROW COL. STREAM  RCH.  FLOW INTO     FLOW TO   FLOW OUT OF   OVRLND.     DIRECT     STREAM       STREAM     STREAM     STREAM   STREAMBED  STREAMBED
                SEG.NO.  NO.  STRM. RCH.    AQUIFER    STRM. RCH.    RUNOFF     PRECIP       ET          HEAD       DEPTH      WIDTH   CONDCTNC.   GRADIENT

   1   13    1     1     1    1.0000E+05 -3.3728E+03   1.0337E+05  0.000E+00  0.000E+00  0.000E+00  4.84075E+01  1.461E-01  2.000E+01  2.000E+04 -1.686E-01
   1   13    2     1     2    1.0337E+05 -4.6114E+03   1.0798E+05  0.000E+00  0.000E+00  0.000E+00  4.79336E+01  1.495E-01  2.000E+01  2.000E+04 -2.306E-01
   1   14    3     1     3    1.0798E+05 -1.0671E+03   1.0905E+05  0.000E+00  0.000E+00  0.000E+00  4.74587E+01  1.519E-01  2.000E+01  2.000E+04 -5.336E-02
   1   15    4     1     4    1.0905E+05 -1.0986E+03   1.1015E+05  0.000E+00  0.000E+00  0.000E+00  4.69824E+01  1.528E-01  2.000E+01  2.000E+04 -5.493E-02
   1   16    5     1     5    1.1015E+05 -4.0234E+03   1.1417E+05  0.000E+00  0.000E+00  0.000E+00  4.65072E+01  1.550E-01  2.000E+01  2.000E+04 -2.012E-01
   1   16    6     1     6    1.1417E+05 -2.3942E+03   1.1657E+05  0.000E+00  0.000E+00  0.000E+00  4.60326E+01  1.576E-01  2.000E+01  2.000E+04 -1.197E-01
   1   16    7     1     7    1.1657E+05 -2.3165E+03   1.1888E+05  0.000E+00  0.000E+00  0.000E+00  4.55573E+01  1.595E-01  2.000E+01  2.000E+04 -1.158E-01
   1   16    8     1     8    1.1888E+05 -2.2954E+03   1.2118E+05  0.000E+00  0.000E+00  0.000E+00  4.50819E+01  1.614E-01  2.000E+01  2.000E+04 -1.148E-01
   1   16    9     1     9    1.2118E+05 -2.2796E+03   1.2346E+05  0.000E+00  0.000E+00  0.000E+00  4.46064E+01  1.632E-01  2.000E+01  2.000E+04 -1.140E-01
   1   16   10     1    10    1.2346E+05 -2.2671E+03   1.2573E+05  0.000E+00  0.000E+00  0.000E+00  4.41310E+01  1.651E-01  2.000E+01  2.000E+04 -1.134E-01
   1   16   11     1    11    1.2573E+05 -2.3058E+03   1.2803E+05  0.000E+00  0.000E+00  0.000E+00  4.36555E+01  1.669E-01  2.000E+01  2.000E+04 -1.153E-01
   1   16   12     1    12    1.2803E+05 -4.0728E+03   1.3210E+05  0.000E+00  0.000E+00  0.000E+00  4.31807E+01  1.694E-01  2.000E+01  2.000E+04 -2.036E-01
   1   15   13     1    13    1.3210E+05 -3.9688E+03   1.3607E+05  0.000E+00  0.000E+00  0.000E+00  4.27066E+01  1.725E-01  2.000E+01  2.000E+04 -1.984E-01
   1   14   14     1    14    1.3607E+05 -4.3191E+03   1.4039E+05  0.000E+00  0.000E+00  0.000E+00  4.22325E+01  1.757E-01  2.000E+01  2.000E+04 -2.160E-01
   1   13   15     1    15    1.4039E+05 -4.6698E+03   1.4506E+05  0.000E+00  0.000E+00  0.000E+00  4.17586E+01  1.791E-01  2.000E+01  2.000E+04 -2.335E-01
   1   12   16     1    16    1.4506E+05 -5.4904E+03   1.5055E+05  0.000E+00  0.000E+00  0.000E+00  4.12851E+01  1.829E-01  2.000E+01  2.000E+04 -2.745E-01
   1   12   17     1    17    1.5055E+05 -3.7198E+03   1.5427E+05  0.000E+00  0.000E+00  0.000E+00  4.08113E+01  1.863E-01  2.000E+01  2.000E+04 -1.860E-01
   1   12   18     1    18    1.5427E+05 -3.5713E+03   1.5784E+05  0.000E+00  0.000E+00  0.000E+00  4.03367E+01  1.889E-01  2.000E+01  2.000E+04 -1.786E-01
   1   12   19     1    19    1.5784E+05 -4.4758E+03   1.6232E+05  0.000E+00  0.000E+00  0.000E+00  3.98623E+01  1.918E-01  2.000E+01  2.000E+04 -2.238E-01
   1   13   20     1    20    1.6232E+05 -3.6945E+03   1.6601E+05  0.000E+00  0.000E+00  0.000E+00  3.93879E+01  1.948E-01  2.000E+01  2.000E+04 -1.847E-01
   1   14   21     1    21    1.6601E+05 -3.7374E+03   1.6975E+05  0.000E+00  0.000E+00  0.000E+00  3.89133E+01  1.974E-01  2.000E+01  2.000E+04 -1.869E-01
   1   14   22     1    22    1.6975E+05  4.4409E+03   1.6531E+05  0.000E+00  0.000E+00  0.000E+00  3.84358E+01  1.971E-01  2.000E+01  2.000E+04  2.220E-01
   1    9   30     2     1    5.0000E+04 -1.5246E+03   5.1525E+04  0.000E+00  0.000E+00  0.000E+00  4.02419E+01  1.169E-01  2.000E+01  2.000E+04 -7.623E-02
   1    9   29     2     2    5.1525E+04 -1.7508E+03   5.3275E+04  0.000E+00  0.000E+00  0.000E+00  3.99942E+01  1.192E-01  2.000E+01  2.000E+04 -8.754E-02
   1    9   28     2     3    5.3275E+04 -1.8666E+03   5.5142E+04  0.000E+00  0.000E+00  0.000E+00  3.97466E+01  1.216E-01  2.000E+01  2.000E+04 -9.333E-02
   1    9   27     2     4    5.5142E+04 -3.1822E+03   5.8324E+04  0.000E+00  0.000E+00  0.000E+00  3.95000E+01  1.250E-01  2.000E+01  2.000E+04 -1.591E-01
   1   10   26     2     5    5.8324E+04 -2.8831E+03   6.1207E+04  0.000E+00  0.000E+00  0.000E+00  3.92540E+01  1.290E-01  2.000E+01  2.000E+04 -1.442E-01
   1   11   25     2     6    6.1207E+04 -2.9012E+03   6.4109E+04  0.000E+00  0.000E+00  0.000E+00  3.90077E+01  1.327E-01  2.000E+01  2.000E+04 -1.451E-01
   1   12   24     2     7    6.4109E+04 -2.9586E+03   6.7067E+04  0.000E+00  0.000E+00  0.000E+00  3.87614E+01  1.364E-01  2.000E+01  2.000E+04 -1.479E-01
   1   13   23     2     8    6.7067E+04 -5.8440E+02   6.7652E+04  0.000E+00  0.000E+00  0.000E+00  3.85136E+01  1.386E-01  2.000E+01  2.000E+04 -2.922E-02
   1   14   22     2     9    6.7652E+04  9.9129E+02   6.6660E+04  0.000E+00  0.000E+00  0.000E+00  3.82633E+01  1.383E-01  2.000E+01  2.000E+04  4.956E-02
   1   14   22     3     1    2.3197E+05 -9.1395E+03   2.4111E+05  0.000E+00  0.000E+00  0.000E+00  3.77568E+01  2.012E-01  2.000E+01  2.000E+04 -4.570E-01
   1   15   23     3     2    2.4111E+05 -1.0558E+03   2.4217E+05  0.000E+00  0.000E+00  0.000E+00  3.68705E+01  2.038E-01  2.000E+01  2.000E+04 -5.279E-02
   1   15   24     3     3    2.4217E+05 -6.6557E+02   2.4283E+05  0.000E+00  0.000E+00  0.000E+00  3.59820E+01  2.042E-01  2.000E+01  2.000E+04 -3.328E-02
   1   15   25     3     4    2.4283E+05 -6.7143E+02   2.4350E+05  0.000E+00  0.000E+00  0.000E+00  3.50935E+01  2.046E-01  2.000E+01  2.000E+04 -3.357E-02
   1   15   26     3     5    2.4350E+05 -7.7264E+02   2.4428E+05  0.000E+00  0.000E+00  0.000E+00  3.42049E+01  2.049E-01  2.000E+01  2.000E+04 -3.863E-02
   1   16   27     3     6    2.4428E+05 -8.9834E+02   2.4517E+05  0.000E+00  0.000E+00  0.000E+00  3.33165E+01  2.054E-01  2.000E+01  2.000E+04 -4.492E-02
   1   17   28     3     7    2.4517E+05 -3.2568E+03   2.4843E+05  0.000E+00  0.000E+00  0.000E+00  3.24286E+01  2.064E-01  2.000E+01  2.000E+04 -1.628E-01
   1   18   29     3     8    2.4843E+05 -5.0571E+03   2.5349E+05  0.000E+00  0.000E+00  0.000E+00  3.15418E+01  2.085E-01  2.000E+01  2.000E+04 -2.529E-01
   1   18   30     3     9    2.5349E+05 -4.6850E+03   2.5817E+05  0.000E+00  0.000E+00  0.000E+00  3.06553E+01  2.109E-01  2.000E+01  2.000E+04 -2.342E-01



1
              HEAD IN LAYER   1 AT END OF TIME STEP   1 IN STRESS PERIOD    2
  ---------------------------------------------------------------------------

          1      2      3      4      5      6      7      8      9     10
         11     12     13     14     15     16     17     18     19     20
         21     22     23     24     25     26     27     28     29     30
 .........................................................................
   1  ****** ****** ****** ****** ****** ****** ****** ****** ****** ******
      ****** ****** ****** ****** ****** ****** ****** ****** ****** ******
      ****** ****** ****** ****** ****** ****** ****** ****** ****** ******
   2  ****** ****** ****** ****** ****** ****** ****** ****** ****** ******
      ****** ****** ****** ****** ****** ****** ****** ****** ****** ******
      ****** ****** ****** ****** ****** ****** ****** ****** ****** ******
   3  ****** ****** ****** ****** ****** ****** ****** ****** ****** ******
      ****** ****** ****** ****** ****** ****** ****** ****** ****** ******
      ****** ****** ****** ****** ****** ****** ****** ****** ****** ******
   4  ****** ****** ****** ****** ****** ****** ****** ****** ****** ******
      ****** ****** ****** ****** ****** ****** ****** ****** ****** ******
      ****** ****** ****** ****** ****** ****** ****** ****** ****** ******
   5  ****** ****** ****** ****** ****** ****** ****** ****** ****** ******
      ****** ****** ****** ****** ****** ****** ****** ****** ****** ******
      ****** ****** ****** ****** ****** ****** ****** ****** ****** ******
   6  ****** ****** ****** ****** ****** ****** ****** ****** ****** ******
      ****** ****** ****** ****** ****** ****** ****** ****** ****** ******
      ****** ****** ****** ****** ****** ****** ****** ****** ****** ******
   7  ****** ****** ****** ****** ****** ****** ****** ****** ****** ******
      ****** ****** ****** ****** ****** ****** ****** ****** ****** ******
      ****** ****** ****** ****** ****** ****** ****** ****** ****** ******
   8  ****** ****** ****** ****** ****** ****** ****** ****** ****** ******
      ****** ****** ****** ****** ****** ****** ****** ****** ****** ******
      ****** ****** ****** ****** ****** ****** ****** ****** ****** ******
   9  ****** ****** ****** ****** ****** ****** ****** ****** ****** ******
      ****** ****** ****** ****** ****** ****** ****** ****** ****** ******
      ****** ****** ****** ****** ****** ****** ****** ****** ****** ******
  10  ****** ****** ****** ****** ****** ****** ****** ****** ****** ******
      ****** ****** ****** ****** ****** ****** ****** ****** ****** ******
      ****** ****** ****** ****** ****** ****** ****** ****** ****** ******
  11  ****** ****** ****** ****** ****** ****** ****** ****** ****** ******
      ****** ****** ****** ****** ****** ****** ****** ****** ****** ******
      ****** ****** ****** ****** ****** ****** ****** ****** ****** ******
  12  ****** ****** ****** ****** ****** ****** ****** ****** ****** ******
      ****** ****** ****** ****** ****** ****** ****** ****** ****** ******
      ****** ****** ****** ****** ****** ****** ****** ****** ****** ******
  13  ****** ****** ****** ****** ****** ****** ****** ****** ****** ******
      ****** ****** ****** ****** ****** ****** ****** ****** ****** ******
      ****** ****** ****** ****** ****** ****** ****** ****** ****** ******
  14  ****** ****** ****** ****** ****** ****** ****** ****** ****** ******
      ****** ****** ****** ****** ****** ****** ****** ****** ****** ******
      ****** ****** ****** ****** ****** ****** ****** ****** ****** ******
  15  ****** ****** ****** ****** ****** ****** ****** ****** ****** ******
      ****** ****** ****** ****** ****** ****** ****** ****** ****** ******
      ****** ****** ****** ****** ****** ****** ****** ****** ****** ******
  16  ****** ****** ****** ****** ****** ****** ****** ****** ****** ******
      ****** ****** ****** ****** ****** ****** ****** ****** ****** ******
      ****** ****** ****** ****** ****** ****** ****** ****** ****** ******
  17  ****** ****** ****** ****** ****** ****** ****** ****** ****** ******
      ****** ****** ****** ****** ****** ****** ****** ****** ****** ******
      ****** ****** ****** ****** ****** ****** ****** ****** ****** ******
  18  ****** ****** ****** ****** ****** ****** ****** ****** ****** ******
      ****** ****** ****** ****** ****** ****** ****** ****** ****** ******
      ****** ****** ****** ****** ****** ****** ****** ****** ****** ******
  19  ****** ****** ****** ****** ****** ****** ****** ****** ****** ******
      ****** ****** ****** ****** ****** ****** ****** ****** ****** ******
      ****** ****** ****** ****** ****** ****** ****** ****** ****** ******
  20  ****** ****** ****** ****** ****** ****** ****** ****** ****** ******
      ****** ****** ****** ****** ****** ****** ****** ****** ****** ******
      ****** ****** ****** ****** ****** ****** ****** ****** ****** ******
  21  ****** ****** ****** ****** ****** ****** ****** ****** ****** ******
      ****** ****** ****** ****** ****** ****** ****** ****** ****** ******
      ****** ****** ****** ****** ****** ****** ****** ****** ****** ******
  22  ****** ****** ****** ****** ****** ****** ****** ****** ****** ******
      ****** ****** ****** ****** ****** ****** ****** ****** ****** ******
      ****** ****** ****** ****** ****** ****** ****** ****** ****** ******
  23  ****** ****** ****** ****** ****** ****** ****** ****** ****** ******
      ****** ****** ****** ****** ****** ****** ****** ****** ****** ******
      ****** ****** ****** ****** ****** ****** ****** ****** ****** ******
  24  ****** ****** ****** ****** ****** ****** ****** ****** ****** ******
      ****** ****** ****** ****** ****** ****** ****** ****** ****** ******
      ****** ****** ****** ****** ****** ****** ****** ****** ****** ******
  25  ****** ****** ****** ****** ****** ****** ****** ****** ****** ******
      ****** ****** ****** ****** ****** ****** ****** ****** ****** ******
      ****** ****** ****** ****** ****** ****** ****** ****** ****** ******

 HEAD WILL BE SAVED ON UNIT   51 AT END OF TIME STEP    1, STRESS PERIOD    2
1
  VOLUMETRIC BUDGET FOR ENTIRE MODEL AT END OF TIME STEP    1, STRESS PERIOD   2
  ------------------------------------------------------------------------------

     CUMULATIVE VOLUMES      L**3       RATES FOR THIS TIME STEP      L**3/T
     ------------------                 ------------------------

           IN:                                      IN:
           ---                                      ---
             STORAGE =    23445365.8611               STORAGE =       58574.3502
       CONSTANT HEAD =     2999528.9037         CONSTANT HEAD =       19073.8505
               WELLS =           0.0000                 WELLS =           0.0000
            RECHARGE =     6292800.0000              RECHARGE =       55200.0000
      STREAM LEAKAGE =      842733.4453        STREAM LEAKAGE =        5432.1548

            TOTAL IN =    33580428.2101              TOTAL IN =      138280.3555

          OUT:                                     OUT:
          ----                                     ----
             STORAGE =           0.0000               STORAGE =           0.0000
       CONSTANT HEAD =           0.0000         CONSTANT HEAD =           0.0000
               WELLS =     4515559.2164                 WELLS =       24675.1870
            RECHARGE =           0.0000              RECHARGE =           0.0000
      STREAM LEAKAGE =    29064870.2522        STREAM LEAKAGE =      113605.1793

           TOTAL OUT =    33580429.4687             TOTAL OUT =      138280.3663

            IN - OUT =          -1.2585              IN - OUT =      -1.0777E-02

 PERCENT DISCREPANCY =          -0.00     PERCENT DISCREPANCY =          -0.00






         TIME SUMMARY AT END OF TIME STEP    1 IN STRESS PERIOD    2
                    SECONDS     MINUTES      HOURS       DAYS        YEARS
                    -----------------------------------------------------------
   TIME STEP LENGTH 7.86240E+06 1.31040E+05  2184.0      91.000     0.24914    
 STRESS PERIOD TIME 7.86240E+06 1.31040E+05  2184.0      91.000     0.24914    
         TOTAL TIME 1.58112E+07 2.63520E+05  4392.0      183.00     0.50103    
1
1
                            STRESS PERIOD NO.    3, LENGTH =   91.00000    
                            -----------------------------------------------

                              NUMBER OF TIME STEPS =     1

                               MULTIPLIER FOR DELT =     1.500

                            INITIAL TIME STEP SIZE =   91.00000    

 WELL NO.  LAYER   ROW   COL   STRESS RATE         
 --------------------------------------------------
      1      1      6     26      -9457.    
      2      1     23      4      -2056.    
      3      1     12     10      -1573.    
      4      1      4      5     -0.1159E+05

      4 WELLS

                 RECHARGE =   0.00000    

 REUSING STREAM SEGMENT DATA FROM LAST STRESS PERIOD
 
 SOLVING FOR HEAD 


     7 CALLS TO PCG ROUTINE FOR TIME STEP   1 IN STRESS PERIOD    3
    27 TOTAL ITERATIONS

 OUTPUT CONTROL FOR STRESS PERIOD    3   TIME STEP    1
    SAVE BUDGET
    SAVE HEAD FOR ALL LAYERS
    PRINT HEAD FOR ALL LAYERS
 UBDSV2 SAVING "STREAMFLOW OUT  " ON UNIT  50 AT TIME STEP  1, STRESS PERIOD   3



 STREAM LISTING     PERIOD      3   STEP        1

 LAYER ROW COL. STREAM  RCH.  FLOW INTO     FLOW TO   FLOW OUT OF   OVRLND.     DIRECT     STREAM       STREAM     STREAM     STREAM   STREAMBED  STREAMBED
                SEG.NO.  NO.  STRM. RCH.    AQUIFER    STRM. RCH.    RUNOFF     PRECIP       ET          HEAD       DEPTH      WIDTH   CONDCTNC.   GRADIENT

   1   13    1     1     1    1.0000E+05 -1.8847E+03   1.0188E+05  0.000E+00  0.000E+00  0.000E+00  4.84068E+01  1.455E-01  2.000E+01  2.000E+04 -9.423E-02
   1   13    2     1     2    1.0188E+05 -2.9491E+03   1.0483E+05  0.000E+00  0.000E+00  0.000E+00  4.79316E+01  1.475E-01  2.000E+01  2.000E+04 -1.475E-01
   1   14    3     1     3    1.0483E+05 -5.8068E+02   1.0541E+05  0.000E+00  0.000E+00  0.000E+00  4.74559E+01  1.491E-01  2.000E+01  2.000E+04 -2.903E-02
   1   15    4     1     4    1.0541E+05 -5.7290E+02   1.0599E+05  0.000E+00  0.000E+00  0.000E+00  4.69791E+01  1.495E-01  2.000E+01  2.000E+04 -2.865E-02
   1   16    5     1     5    1.0599E+05 -2.1697E+03   1.0816E+05  0.000E+00  0.000E+00  0.000E+00  4.65030E+01  1.507E-01  2.000E+01  2.000E+04 -1.085E-01
   1   16    6     1     6    1.0816E+05 -1.3585E+03   1.0952E+05  0.000E+00  0.000E+00  0.000E+00  4.60272E+01  1.522E-01  2.000E+01  2.000E+04 -6.793E-02
   1   16    7     1     7    1.0952E+05 -1.3415E+03   1.1086E+05  0.000E+00  0.000E+00  0.000E+00  4.55510E+01  1.533E-01  2.000E+01  2.000E+04 -6.707E-02
   1   16    8     1     8    1.1086E+05 -1.3403E+03   1.1220E+05  0.000E+00  0.000E+00  0.000E+00  4.50749E+01  1.544E-01  2.000E+01  2.000E+04 -6.701E-02
   1   16    9     1     9    1.1220E+05 -1.3318E+03   1.1353E+05  0.000E+00  0.000E+00  0.000E+00  4.45987E+01  1.555E-01  2.000E+01  2.000E+04 -6.659E-02
   1   16   10     1    10    1.1353E+05 -1.3255E+03   1.1485E+05  0.000E+00  0.000E+00  0.000E+00  4.41226E+01  1.566E-01  2.000E+01  2.000E+04 -6.628E-02
   1   16   11     1    11    1.1485E+05 -1.3681E+03   1.1622E+05  0.000E+00  0.000E+00  0.000E+00  4.36464E+01  1.577E-01  2.000E+01  2.000E+04 -6.840E-02
   1   16   12     1    12    1.1622E+05 -2.4475E+03   1.1867E+05  0.000E+00  0.000E+00  0.000E+00  4.31707E+01  1.593E-01  2.000E+01  2.000E+04 -1.224E-01
   1   15   13     1    13    1.1867E+05 -2.2737E+03   1.2094E+05  0.000E+00  0.000E+00  0.000E+00  4.26953E+01  1.612E-01  2.000E+01  2.000E+04 -1.137E-01
   1   14   14     1    14    1.2094E+05 -2.5570E+03   1.2350E+05  0.000E+00  0.000E+00  0.000E+00  4.22200E+01  1.632E-01  2.000E+01  2.000E+04 -1.279E-01
   1   13   15     1    15    1.2350E+05 -2.8874E+03   1.2639E+05  0.000E+00  0.000E+00  0.000E+00  4.17449E+01  1.653E-01  2.000E+01  2.000E+04 -1.444E-01
   1   12   16     1    16    1.2639E+05 -3.6158E+03   1.3000E+05  0.000E+00  0.000E+00  0.000E+00  4.12702E+01  1.679E-01  2.000E+01  2.000E+04 -1.808E-01
   1   12   17     1    17    1.3000E+05 -2.3965E+03   1.3240E+05  0.000E+00  0.000E+00  0.000E+00  4.07953E+01  1.703E-01  2.000E+01  2.000E+04 -1.198E-01
   1   12   18     1    18    1.3240E+05 -2.2769E+03   1.3468E+05  0.000E+00  0.000E+00  0.000E+00  4.03198E+01  1.721E-01  2.000E+01  2.000E+04 -1.138E-01
   1   12   19     1    19    1.3468E+05 -2.8463E+03   1.3752E+05  0.000E+00  0.000E+00  0.000E+00  3.98445E+01  1.740E-01  2.000E+01  2.000E+04 -1.423E-01
   1   13   20     1    20    1.3752E+05 -2.2370E+03   1.3976E+05  0.000E+00  0.000E+00  0.000E+00  3.93692E+01  1.760E-01  2.000E+01  2.000E+04 -1.118E-01
   1   14   21     1    21    1.3976E+05 -2.2854E+03   1.4205E+05  0.000E+00  0.000E+00  0.000E+00  3.88936E+01  1.777E-01  2.000E+01  2.000E+04 -1.143E-01
   1   14   22     1    22    1.4205E+05  4.7939E+03   1.3725E+05  0.000E+00  0.000E+00  0.000E+00  3.84154E+01  1.767E-01  2.000E+01  2.000E+04  2.397E-01
   1    9   30     2     1    5.0000E+04 -2.5873E+02   5.0259E+04  0.000E+00  0.000E+00  0.000E+00  4.02410E+01  1.160E-01  2.000E+01  2.000E+04 -1.294E-02
   1    9   29     2     2    5.0259E+04 -4.8497E+02   5.0744E+04  0.000E+00  0.000E+00  0.000E+00  3.99916E+01  1.166E-01  2.000E+01  2.000E+04 -2.425E-02
   1    9   28     2     3    5.0744E+04 -5.8290E+02   5.1327E+04  0.000E+00  0.000E+00  0.000E+00  3.97423E+01  1.173E-01  2.000E+01  2.000E+04 -2.915E-02
   1    9   27     2     4    5.1327E+04 -1.3210E+03   5.2648E+04  0.000E+00  0.000E+00  0.000E+00  3.94936E+01  1.186E-01  2.000E+01  2.000E+04 -6.605E-02
   1   10   26     2     5    5.2648E+04 -1.1847E+03   5.3832E+04  0.000E+00  0.000E+00  0.000E+00  3.92453E+01  1.203E-01  2.000E+01  2.000E+04 -5.924E-02
   1   11   25     2     6    5.3832E+04 -1.3349E+03   5.5167E+04  0.000E+00  0.000E+00  0.000E+00  3.89970E+01  1.220E-01  2.000E+01  2.000E+04 -6.675E-02
   1   12   24     2     7    5.5167E+04 -1.5635E+03   5.6731E+04  0.000E+00  0.000E+00  0.000E+00  3.87490E+01  1.240E-01  2.000E+01  2.000E+04 -7.818E-02
   1   13   23     2     8    5.6731E+04 -2.4328E+02   5.6974E+04  0.000E+00  0.000E+00  0.000E+00  3.85001E+01  1.251E-01  2.000E+01  2.000E+04 -1.216E-02
   1   14   22     2     9    5.6974E+04  1.4729E+03   5.5501E+04  0.000E+00  0.000E+00  0.000E+00  3.82493E+01  1.243E-01  2.000E+01  2.000E+04  7.364E-02
   1   14   22     3     1    1.9275E+05 -8.7951E+03   2.0155E+05  0.000E+00  0.000E+00  0.000E+00  3.77359E+01  1.804E-01  2.000E+01  2.000E+04 -4.398E-01
   1   15   23     3     2    2.0155E+05 -6.7012E+02   2.0222E+05  0.000E+00  0.000E+00  0.000E+00  3.68496E+01  1.830E-01  2.000E+01  2.000E+04 -3.351E-02
   1   15   24     3     3    2.0222E+05 -3.4570E+02   2.0256E+05  0.000E+00  0.000E+00  0.000E+00  3.59610E+01  1.832E-01  2.000E+01  2.000E+04 -1.728E-02
   1   15   25     3     4    2.0256E+05 -3.3439E+02   2.0290E+05  0.000E+00  0.000E+00  0.000E+00  3.50723E+01  1.834E-01  2.000E+01  2.000E+04 -1.672E-02
   1   15   26     3     5    2.0290E+05 -3.7005E+02   2.0327E+05  0.000E+00  0.000E+00  0.000E+00  3.41836E+01  1.836E-01  2.000E+01  2.000E+04 -1.850E-02
   1   16   27     3     6    2.0327E+05 -4.3483E+02   2.0370E+05  0.000E+00  0.000E+00  0.000E+00  3.32949E+01  1.838E-01  2.000E+01  2.000E+04 -2.174E-02
   1   17   28     3     7    2.0370E+05 -1.8519E+03   2.0556E+05  0.000E+00  0.000E+00  0.000E+00  3.24067E+01  1.845E-01  2.000E+01  2.000E+04 -9.259E-02
   1   18   29     3     8    2.0556E+05 -3.5546E+03   2.0911E+05  0.000E+00  0.000E+00  0.000E+00  3.15192E+01  1.859E-01  2.000E+01  2.000E+04 -1.777E-01
   1   18   30     3     9    2.0911E+05 -3.5571E+03   2.1267E+05  0.000E+00  0.000E+00  0.000E+00  3.06323E+01  1.878E-01  2.000E+01  2.000E+04 -1.779E-01



1
              HEAD IN LAYER   1 AT END OF TIME STEP   1 IN STRESS PERIOD    3
  ---------------------------------------------------------------------------

          1      2      3      4      5      6      7      8      9     10
         11     12     13     14     15     16     17     18     19     20
         21     22     23     24     25     26     27     28     29     30
 .........................................................................
   1  ****** ****** ****** ****** ****** ****** ****** ****** ****** ******
      ****** ****** ****** ****** ****** ****** ****** ****** ****** ******
      ****** ****** ****** ****** ****** ****** ****** ****** ****** ******
   2  ****** ****** ****** ****** ****** ****** ****** ****** ****** ******
      ****** ****** ****** ****** ****** ****** ****** ****** ****** ******
      ****** ****** ****** ****** ****** ****** ****** ****** ****** ******
   3  ****** ****** ****** ****** ****** ****** ****** ****** ****** ******
      ****** ****** ****** ****** ****** ****** ****** ****** ****** ******
      ****** ****** ****** ****** ****** ****** ****** ****** ****** ******
   4  ****** ****** ****** ****** ****** ****** ****** ****** ****** ******
      ****** ****** ****** ****** ****** ****** ****** ****** ****** ******
      ****** ****** ****** ****** ****** ****** ****** ****** ****** ******
   5  ****** ****** ****** ****** ****** ****** ****** ****** ****** ******
      ****** ****** ****** ****** ****** ****** ****** ****** ****** ******
      ****** ****** ****** ****** ****** ****** ****** ****** ****** ******
   6  ****** ****** ****** ****** ****** ****** ****** ****** ****** ******
      ****** ****** ****** ****** ****** ****** ****** ****** ****** ******
      ****** ****** ****** ****** ****** ****** ****** ****** ****** ******
   7  ****** ****** ****** ****** ****** ****** ****** ****** ****** ******
      ****** ****** ****** ****** ****** ****** ****** ****** ****** ******
      ****** ****** ****** ****** ****** ****** ****** ****** ****** ******
   8  ****** ****** ****** ****** ****** ****** ****** ****** ****** ******
      ****** ****** ****** ****** ****** ****** ****** ****** ****** ******
      ****** ****** ****** ****** ****** ****** ****** ****** ****** ******
   9  ****** ****** ****** ****** ****** ****** ****** ****** ****** ******
      ****** ****** ****** ****** ****** ****** ****** ****** ****** ******
      ****** ****** ****** ****** ****** ****** ****** ****** ****** ******
  10  ****** ****** ****** ****** ****** ****** ****** ****** ****** ******
      ****** ****** ****** ****** ****** ****** ****** ****** ****** ******
      ****** ****** ****** ****** ****** ****** ****** ****** ****** ******
  11  ****** ****** ****** ****** ****** ****** ****** ****** ****** ******
      ****** ****** ****** ****** ****** ****** ****** ****** ****** ******
      ****** ****** ****** ****** ****** ****** ****** ****** ****** ******
  12  ****** ****** ****** ****** ****** ****** ****** ****** ****** ******
      ****** ****** ****** ****** ****** ****** ****** ****** ****** ******
      ****** ****** ****** ****** ****** ****** ****** ****** ****** ******
  13  ****** ****** ****** ****** ****** ****** ****** ****** ****** ******
      ****** ****** ****** ****** ****** ****** ****** ****** ****** ******
      ****** ****** ****** ****** ****** ****** ****** ****** ****** ******
  14  ****** ****** ****** ****** ****** ****** ****** ****** ****** ******
      ****** ****** ****** ****** ****** ****** ****** ****** ****** ******
      ****** ****** ****** ****** ****** ****** ****** ****** ****** ******
  15  ****** ****** ****** ****** ****** ****** ****** ****** ****** ******
      ****** ****** ****** ****** ****** ****** ****** ****** ****** ******
      ****** ****** ****** ****** ****** ****** ****** ****** ****** ******
  16  ****** ****** ****** ****** ****** ****** ****** ****** ****** ******
      ****** ****** ****** ****** ****** ****** ****** ****** ****** ******
      ****** ****** ****** ****** ****** ****** ****** ****** ****** ******
  17  ****** ****** ****** ****** ****** ****** ****** ****** ****** ******
      ****** ****** ****** ****** ****** ****** ****** ****** ****** ******
      ****** ****** ****** ****** ****** ****** ****** ****** ****** ******
  18  ****** ****** ****** ****** ****** ****** ****** ****** ****** ******
      ****** ****** ****** ****** ****** ****** ****** ****** ****** ******
      ****** ****** ****** ****** ****** ****** ****** ****** ****** ******
  19  ****** ****** ****** ****** ****** ****** ****** ****** ****** ******
      ****** ****** ****** ****** ****** ****** ****** ****** ****** ******
      ****** ****** ****** ****** ****** ****** ****** ****** ****** ******
  20  ****** ****** ****** ****** ****** ****** ****** ****** ****** ******
      ****** ****** ****** ****** ****** ****** ****** ****** ****** ******
      ****** ****** ****** ****** ****** ****** ****** ****** ****** ******
  21  ****** ****** ****** ****** ****** ****** ****** ****** ****** ******
      ****** ****** ****** ****** ****** ****** ****** ****** ****** ******
      ****** ****** ****** ****** ****** ****** ****** ****** ****** ******
  22  ****** ****** ****** ****** ****** ****** ****** ****** ****** ******
      ****** ****** ****** ****** ****** ****** ****** ****** ****** ******
      ****** ****** ****** ****** ****** ****** ****** ****** ****** ******
  23  ****** ****** ****** ****** ****** ****** ****** ****** ****** ******
      ****** ****** ****** ****** ****** ****** ****** ****** ****** ******
      ****** ****** ****** ****** ****** ****** ****** ****** ****** ******
  24  ****** ****** ****** ****** ****** ****** ****** ****** ****** ******
      ****** ****** ****** ****** ****** ****** ****** ****** ****** ******
      ****** ****** ****** ****** ****** ****** ****** ****** ****** ******
  25  ****** ****** ****** ****** ****** ****** ****** ****** ****** ******
      ****** ****** ****** ****** ****** ****** ****** ****** ****** ******
      ****** ****** ****** ****** ****** ****** ****** ****** ****** ******

 HEAD WILL BE SAVED ON UNIT   51 AT END OF TIME STEP    1, STRESS PERIOD    3
1
  VOLUMETRIC BUDGET FOR ENTIRE MODEL AT END OF TIME STEP    1, STRESS PERIOD   3
  ------------------------------------------------------------------------------

     CUMULATIVE VOLUMES      L**3       RATES FOR THIS TIME STEP      L**3/T
     ------------------                 ------------------------

           IN:                                      IN:
           ---                                      ---
             STORAGE =    28830297.1606               STORAGE =       59175.0692
       CONSTANT HEAD =     5562773.7797         CONSTANT HEAD =       28167.5261
               WELLS =           0.0000                 WELLS =           0.0000
            RECHARGE =     6292800.0000              RECHARGE =           0.0000
      STREAM LEAKAGE =     1413007.1194        STREAM LEAKAGE =        6266.7437

            TOTAL IN =    42098878.0597              TOTAL IN =       93609.3390

          OUT:                                     OUT:
          ----                                     ----
             STORAGE =           0.0000               STORAGE =           0.0000
       CONSTANT HEAD =           0.0000         CONSTANT HEAD =           0.0000
               WELLS =     6761001.2312                 WELLS =       24675.1870
            RECHARGE =           0.0000              RECHARGE =           0.0000
      STREAM LEAKAGE =    35337878.7857        STREAM LEAKAGE =       68934.1597

           TOTAL OUT =    42098880.0169             TOTAL OUT =       93609.3467

            IN - OUT =          -1.9572              IN - OUT =      -7.6773E-03

 PERCENT DISCREPANCY =          -0.00     PERCENT DISCREPANCY =          -0.00






         TIME SUMMARY AT END OF TIME STEP    1 IN STRESS PERIOD    3
                    SECONDS     MINUTES      HOURS       DAYS        YEARS
                    -----------------------------------------------------------
   TIME STEP LENGTH 7.86240E+06 1.31040E+05  2184.0      91.000     0.24914    
 STRESS PERIOD TIME 7.86240E+06 1.31040E+05  2184.0      91.000     0.24914    
         TOTAL TIME 2.36736E+07 3.94560E+05  6576.0      274.00     0.75017    
1
1
                            STRESS PERIOD NO.    4, LENGTH =   91.00000    
                            -----------------------------------------------

                              NUMBER OF TIME STEPS =     1

                               MULTIPLIER FOR DELT =     1.500

                            INITIAL TIME STEP SIZE =   91.00000    

 WELL NO.  LAYER   ROW   COL   STRESS RATE         
 --------------------------------------------------
      1      1      6     26      -9457.    
      2      1     23      4      -2056.    
      3      1     12     10      -1573.    
      4      1      4      5     -0.1159E+05

      4 WELLS

                 RECHARGE =  1.000000E-03

 REUSING STREAM SEGMENT DATA FROM LAST STRESS PERIOD
 
 SOLVING FOR HEAD 


     6 CALLS TO PCG ROUTINE FOR TIME STEP   1 IN STRESS PERIOD    4
    23 TOTAL ITERATIONS

 OUTPUT CONTROL FOR STRESS PERIOD    4   TIME STEP    1
    SAVE BUDGET
    SAVE HEAD FOR ALL LAYERS
    PRINT HEAD FOR ALL LAYERS
 UBDSV2 SAVING "STREAMFLOW OUT  " ON UNIT  50 AT TIME STEP  1, STRESS PERIOD   4



 STREAM LISTING     PERIOD      4   STEP        1

 LAYER ROW COL. STREAM  RCH.  FLOW INTO     FLOW TO   FLOW OUT OF   OVRLND.     DIRECT     STREAM       STREAM     STREAM     STREAM   STREAMBED  STREAMBED
                SEG.NO.  NO.  STRM. RCH.    AQUIFER    STRM. RCH.    RUNOFF     PRECIP       ET          HEAD       DEPTH      WIDTH   CONDCTNC.   GRADIENT

   1   13    1     1     1    1.0000E+05 -1.4847E+03   1.0148E+05  0.000E+00  0.000E+00  0.000E+00  4.84067E+01  1.453E-01  2.000E+01  2.000E+04 -7.424E-02
   1   13    2     1     2    1.0148E+05 -2.4920E+03   1.0398E+05  0.000E+00  0.000E+00  0.000E+00  4.79311E+01  1.470E-01  2.000E+01  2.000E+04 -1.246E-01
   1   14    3     1     3    1.0398E+05 -5.3135E+02   1.0451E+05  0.000E+00  0.000E+00  0.000E+00  4.74551E+01  1.483E-01  2.000E+01  2.000E+04 -2.657E-02
   1   15    4     1     4    1.0451E+05 -5.1832E+02   1.0503E+05  0.000E+00  0.000E+00  0.000E+00  4.69783E+01  1.488E-01  2.000E+01  2.000E+04 -2.592E-02
   1   16    5     1     5    1.0503E+05 -1.8375E+03   1.0686E+05  0.000E+00  0.000E+00  0.000E+00  4.65020E+01  1.498E-01  2.000E+01  2.000E+04 -9.188E-02
   1   16    6     1     6    1.0686E+05 -1.1905E+03   1.0805E+05  0.000E+00  0.000E+00  0.000E+00  4.60260E+01  1.510E-01  2.000E+01  2.000E+04 -5.952E-02
   1   16    7     1     7    1.0805E+05 -1.1857E+03   1.0924E+05  0.000E+00  0.000E+00  0.000E+00  4.55498E+01  1.520E-01  2.000E+01  2.000E+04 -5.929E-02
   1   16    8     1     8    1.0924E+05 -1.1903E+03   1.1043E+05  0.000E+00  0.000E+00  0.000E+00  4.50735E+01  1.530E-01  2.000E+01  2.000E+04 -5.951E-02
   1   16    9     1     9    1.1043E+05 -1.1875E+03   1.1162E+05  0.000E+00  0.000E+00  0.000E+00  4.45972E+01  1.540E-01  2.000E+01  2.000E+04 -5.937E-02
   1   16   10     1    10    1.1162E+05 -1.1893E+03   1.1281E+05  0.000E+00  0.000E+00  0.000E+00  4.41209E+01  1.550E-01  2.000E+01  2.000E+04 -5.946E-02
   1   16   11     1    11    1.1281E+05 -1.2386E+03   1.1405E+05  0.000E+00  0.000E+00  0.000E+00  4.36446E+01  1.560E-01  2.000E+01  2.000E+04 -6.193E-02
   1   16   12     1    12    1.1405E+05 -2.1778E+03   1.1622E+05  0.000E+00  0.000E+00  0.000E+00  4.31688E+01  1.574E-01  2.000E+01  2.000E+04 -1.089E-01
   1   15   13     1    13    1.1622E+05 -1.9982E+03   1.1822E+05  0.000E+00  0.000E+00  0.000E+00  4.26932E+01  1.591E-01  2.000E+01  2.000E+04 -9.991E-02
   1   14   14     1    14    1.1822E+05 -2.2422E+03   1.2046E+05  0.000E+00  0.000E+00  0.000E+00  4.22177E+01  1.608E-01  2.000E+01  2.000E+04 -1.121E-01
   1   13   15     1    15    1.2046E+05 -2.5331E+03   1.2300E+05  0.000E+00  0.000E+00  0.000E+00  4.17423E+01  1.628E-01  2.000E+01  2.000E+04 -1.267E-01
   1   12   16     1    16    1.2300E+05 -3.1393E+03   1.2614E+05  0.000E+00  0.000E+00  0.000E+00  4.12673E+01  1.650E-01  2.000E+01  2.000E+04 -1.570E-01
   1   12   17     1    17    1.2614E+05 -2.1263E+03   1.2826E+05  0.000E+00  0.000E+00  0.000E+00  4.07921E+01  1.671E-01  2.000E+01  2.000E+04 -1.063E-01
   1   12   18     1    18    1.2826E+05 -2.0321E+03   1.3029E+05  0.000E+00  0.000E+00  0.000E+00  4.03165E+01  1.687E-01  2.000E+01  2.000E+04 -1.016E-01
   1   12   19     1    19    1.3029E+05 -2.5420E+03   1.3284E+05  0.000E+00  0.000E+00  0.000E+00  3.98410E+01  1.705E-01  2.000E+01  2.000E+04 -1.271E-01
   1   13   20     1    20    1.3284E+05 -2.0610E+03   1.3490E+05  0.000E+00  0.000E+00  0.000E+00  3.93655E+01  1.723E-01  2.000E+01  2.000E+04 -1.031E-01
   1   14   21     1    21    1.3490E+05 -2.0715E+03   1.3697E+05  0.000E+00  0.000E+00  0.000E+00  3.88898E+01  1.739E-01  2.000E+01  2.000E+04 -1.036E-01
   1   14   22     1    22    1.3697E+05  4.8238E+03   1.3215E+05  0.000E+00  0.000E+00  0.000E+00  3.84115E+01  1.728E-01  2.000E+01  2.000E+04  2.412E-01
   1    9   30     2     1    5.0000E+04 -1.4447E+02   5.0144E+04  0.000E+00  0.000E+00  0.000E+00  4.02410E+01  1.160E-01  2.000E+01  2.000E+04 -7.224E-03
   1    9   29     2     2    5.0144E+04 -3.6294E+02   5.0507E+04  0.000E+00  0.000E+00  0.000E+00  3.99913E+01  1.163E-01  2.000E+01  2.000E+04 -1.815E-02
   1    9   28     2     3    5.0507E+04 -4.3828E+02   5.0946E+04  0.000E+00  0.000E+00  0.000E+00  3.97419E+01  1.169E-01  2.000E+01  2.000E+04 -2.191E-02
   1    9   27     2     4    5.0946E+04 -1.0043E+03   5.1950E+04  0.000E+00  0.000E+00  0.000E+00  3.94929E+01  1.179E-01  2.000E+01  2.000E+04 -5.022E-02
   1   10   26     2     5    5.1950E+04 -9.9536E+02   5.2945E+04  0.000E+00  0.000E+00  0.000E+00  3.92442E+01  1.192E-01  2.000E+01  2.000E+04 -4.977E-02
   1   11   25     2     6    5.2945E+04 -1.1920E+03   5.4137E+04  0.000E+00  0.000E+00  0.000E+00  3.89957E+01  1.207E-01  2.000E+01  2.000E+04 -5.960E-02
   1   12   24     2     7    5.4137E+04 -1.4405E+03   5.5578E+04  0.000E+00  0.000E+00  0.000E+00  3.87475E+01  1.225E-01  2.000E+01  2.000E+04 -7.202E-02
   1   13   23     2     8    5.5578E+04 -2.6522E+02   5.5843E+04  0.000E+00  0.000E+00  0.000E+00  3.84986E+01  1.236E-01  2.000E+01  2.000E+04 -1.326E-02
   1   14   22     2     9    5.5843E+04  1.5496E+03   5.4294E+04  0.000E+00  0.000E+00  0.000E+00  3.82478E+01  1.228E-01  2.000E+01  2.000E+04  7.748E-02
   1   14   22     3     1    1.8644E+05 -8.7573E+03   1.9520E+05  0.000E+00  0.000E+00  0.000E+00  3.77324E+01  1.769E-01  2.000E+01  2.000E+04 -4.379E-01
   1   15   23     3     2    1.9520E+05 -6.5152E+02   1.9585E+05  0.000E+00  0.000E+00  0.000E+00  3.68461E+01  1.795E-01  2.000E+01  2.000E+04 -3.258E-02
   1   15   24     3     3    1.9585E+05 -3.4738E+02   1.9620E+05  0.000E+00  0.000E+00  0.000E+00  3.59575E+01  1.798E-01  2.000E+01  2.000E+04 -1.737E-02
   1   15   25     3     4    1.9620E+05 -3.3552E+02   1.9653E+05  0.000E+00  0.000E+00  0.000E+00  3.50688E+01  1.799E-01  2.000E+01  2.000E+04 -1.678E-02
   1   15   26     3     5    1.9653E+05 -3.8033E+02   1.9691E+05  0.000E+00  0.000E+00  0.000E+00  3.41801E+01  1.801E-01  2.000E+01  2.000E+04 -1.902E-02
   1   16   27     3     6    1.9691E+05 -4.3726E+02   1.9735E+05  0.000E+00  0.000E+00  0.000E+00  3.32915E+01  1.804E-01  2.000E+01  2.000E+04 -2.186E-02
   1   17   28     3     7    1.9735E+05 -1.7960E+03   1.9914E+05  0.000E+00  0.000E+00  0.000E+00  3.24032E+01  1.810E-01  2.000E+01  2.000E+04 -8.980E-02
   1   18   29     3     8    1.9914E+05 -3.3534E+03   2.0250E+05  0.000E+00  0.000E+00  0.000E+00  3.15157E+01  1.824E-01  2.000E+01  2.000E+04 -1.677E-01
   1   18   30     3     9    2.0250E+05 -3.4590E+03   2.0596E+05  0.000E+00  0.000E+00  0.000E+00  3.06287E+01  1.842E-01  2.000E+01  2.000E+04 -1.730E-01



1
              HEAD IN LAYER   1 AT END OF TIME STEP   1 IN STRESS PERIOD    4
  ---------------------------------------------------------------------------

          1      2      3      4      5      6      7      8      9     10
         11     12     13     14     15     16     17     18     19     20
         21     22     23     24     25     26     27     28     29     30
 .........................................................................
   1  ****** ****** ****** ****** ****** ****** ****** ****** ****** ******
      ****** ****** ****** ****** ****** ****** ****** ****** ****** ******
      ****** ****** ****** ****** ****** ****** ****** ****** ****** ******
   2  ****** ****** ****** ****** ****** ****** ****** ****** ****** ******
      ****** ****** ****** ****** ****** ****** ****** ****** ****** ******
      ****** ****** ****** ****** ****** ****** ****** ****** ****** ******
   3  ****** ****** ****** ****** ****** ****** ****** ****** ****** ******
      ****** ****** ****** ****** ****** ****** ****** ****** ****** ******
      ****** ****** ****** ****** ****** ****** ****** ****** ****** ******
   4  ****** ****** ****** ****** ****** ****** ****** ****** ****** ******
      ****** ****** ****** ****** ****** ****** ****** ****** ****** ******
      ****** ****** ****** ****** ****** ****** ****** ****** ****** ******
   5  ****** ****** ****** ****** ****** ****** ****** ****** ****** ******
      ****** ****** ****** ****** ****** ****** ****** ****** ****** ******
      ****** ****** ****** ****** ****** ****** ****** ****** ****** ******
   6  ****** ****** ****** ****** ****** ****** ****** ****** ****** ******
      ****** ****** ****** ****** ****** ****** ****** ****** ****** ******
      ****** ****** ****** ****** ****** ****** ****** ****** ****** ******
   7  ****** ****** ****** ****** ****** ****** ****** ****** ****** ******
      ****** ****** ****** ****** ****** ****** ****** ****** ****** ******
      ****** ****** ****** ****** ****** ****** ****** ****** ****** ******
   8  ****** ****** ****** ****** ****** ****** ****** ****** ****** ******
      ****** ****** ****** ****** ****** ****** ****** ****** ****** ******
      ****** ****** ****** ****** ****** ****** ****** ****** ****** ******
   9  ****** ****** ****** ****** ****** ****** ****** ****** ****** ******
      ****** ****** ****** ****** ****** ****** ****** ****** ****** ******
      ****** ****** ****** ****** ****** ****** ****** ****** ****** ******
  10  ****** ****** ****** ****** ****** ****** ****** ****** ****** ******
      ****** ****** ****** ****** ****** ****** ****** ****** ****** ******
      ****** ****** ****** ****** ****** ****** ****** ****** ****** ******
  11  ****** ****** ****** ****** ****** ****** ****** ****** ****** ******
      ****** ****** ****** ****** ****** ****** ****** ****** ****** ******
      ****** ****** ****** ****** ****** ****** ****** ****** ****** ******
  12  ****** ****** ****** ****** ****** ****** ****** ****** ****** ******
      ****** ****** ****** ****** ****** ****** ****** ****** ****** ******
      ****** ****** ****** ****** ****** ****** ****** ****** ****** ******
  13  ****** ****** ****** ****** ****** ****** ****** ****** ****** ******
      ****** ****** ****** ****** ****** ****** ****** ****** ****** ******
      ****** ****** ****** ****** ****** ****** ****** ****** ****** ******
  14  ****** ****** ****** ****** ****** ****** ****** ****** ****** ******
      ****** ****** ****** ****** ****** ****** ****** ****** ****** ******
      ****** ****** ****** ****** ****** ****** ****** ****** ****** ******
  15  ****** ****** ****** ****** ****** ****** ****** ****** ****** ******
      ****** ****** ****** ****** ****** ****** ****** ****** ****** ******
      ****** ****** ****** ****** ****** ****** ****** ****** ****** ******
  16  ****** ****** ****** ****** ****** ****** ****** ****** ****** ******
      ****** ****** ****** ****** ****** ****** ****** ****** ****** ******
      ****** ****** ****** ****** ****** ****** ****** ****** ****** ******
  17  ****** ****** ****** ****** ****** ****** ****** ****** ****** ******
      ****** ****** ****** ****** ****** ****** ****** ****** ****** ******
      ****** ****** ****** ****** ****** ****** ****** ****** ****** ******
  18  ****** ****** ****** ****** ****** ****** ****** ****** ****** ******
      ****** ****** ****** ****** ****** ****** ****** ****** ****** ******
      ****** ****** ****** ****** ****** ****** ****** ****** ****** ******
  19  ****** ****** ****** ****** ****** ****** ****** ****** ****** ******
      ****** ****** ****** ****** ****** ****** ****** ****** ****** ******
      ****** ****** ****** ****** ****** ****** ****** ****** ****** ******
  20  ****** ****** ****** ****** ****** ****** ****** ****** ****** ******
      ****** ****** ****** ****** ****** ****** ****** ****** ****** ******
      ****** ****** ****** ****** ****** ****** ****** ****** ****** ******
  21  ****** ****** ****** ****** ****** ****** ****** ****** ****** ******
      ****** ****** ****** ****** ****** ****** ****** ****** ****** ******
      ****** ****** ****** ****** ****** ****** ****** ****** ****** ******
  22  ****** ****** ****** ****** ****** ****** ****** ****** ****** ******
      ****** ****** ****** ****** ****** ****** ****** ****** ****** ******
      ****** ****** ****** ****** ****** ****** ****** ****** ****** ******
  23  ****** ****** ****** ****** ****** ****** ****** ****** ****** ******
      ****** ****** ****** ****** ****** ****** ****** ****** ****** ******
      ****** ****** ****** ****** ****** ****** ****** ****** ****** ******
  24  ****** ****** ****** ****** ****** ****** ****** ****** ****** ******
      ****** ****** ****** ****** ****** ****** ****** ****** ****** ******
      ****** ****** ****** ****** ****** ****** ****** ****** ****** ******
  25  ****** ****** ****** ****** ****** ****** ****** ****** ****** ******
      ****** ****** ****** ****** ****** ****** ****** ****** ****** ******
      ****** ****** ****** ****** ****** ****** ****** ****** ****** ******

 HEAD WILL BE SAVED ON UNIT   51 AT END OF TIME STEP    1, STRESS PERIOD    4
1
  VOLUMETRIC BUDGET FOR ENTIRE MODEL AT END OF TIME STEP    1, STRESS PERIOD   4
  ------------------------------------------------------------------------------

     CUMULATIVE VOLUMES      L**3       RATES FOR THIS TIME STEP      L**3/T
     ------------------                 ------------------------

           IN:                                      IN:
           ---                                      ---
             STORAGE =    30822132.2917               STORAGE =       21888.2981
       CONSTANT HEAD =     8398002.2713         CONSTANT HEAD =       31156.3571
               WELLS =           0.0000                 WELLS =           0.0000
            RECHARGE =     8804400.0000              RECHARGE =       27600.0000
      STREAM LEAKAGE =     1992990.4096        STREAM LEAKAGE =        6373.4427

            TOTAL IN =    50017524.9726              TOTAL IN =       87018.0979

          OUT:                                     OUT:
          ----                                     ----
             STORAGE =        1174.6489               STORAGE =          12.9082
       CONSTANT HEAD =           0.0000         CONSTANT HEAD =           0.0000
               WELLS =     9006443.2459                 WELLS =       24675.1870
            RECHARGE =           0.0000              RECHARGE =           0.0000
      STREAM LEAKAGE =    41009909.1390        STREAM LEAKAGE =       62330.0039

           TOTAL OUT =    50017527.0338             TOTAL OUT =       87018.0991

            IN - OUT =          -2.0611              IN - OUT =      -1.1426E-03

 PERCENT DISCREPANCY =          -0.00     PERCENT DISCREPANCY =          -0.00






         TIME SUMMARY AT END OF TIME STEP    1 IN STRESS PERIOD    4
                    SECONDS     MINUTES      HOURS       DAYS        YEARS
                    -----------------------------------------------------------
   TIME STEP LENGTH 7.86240E+06 1.31040E+05  2184.0      91.000     0.24914    
 STRESS PERIOD TIME 7.86240E+06 1.31040E+05  2184.0      91.000     0.24914    
         TOTAL TIME 3.15360E+07 5.25600E+05  8760.0      365.00     0.99932    
1
1
                            STRESS PERIOD NO.    5, LENGTH =   92.00000    
                            -----------------------------------------------

                              NUMBER OF TIME STEPS =     1

                               MULTIPLIER FOR DELT =     1.500

                            INITIAL TIME STEP SIZE =   92.00000    

 WELL NO.  LAYER   ROW   COL   STRESS RATE         
 --------------------------------------------------
      1      1      6     26      -9457.    
      2      1     23      4      -2056.    
      3      1     12     10      -1573.    
      4      1      4      5     -0.1159E+05

      4 WELLS

                 RECHARGE =  5.000000E-04

 REUSING STREAM SEGMENT DATA FROM LAST STRESS PERIOD
 
 SOLVING FOR HEAD 


     7 CALLS TO PCG ROUTINE FOR TIME STEP   1 IN STRESS PERIOD    5
    26 TOTAL ITERATIONS

 OUTPUT CONTROL FOR STRESS PERIOD    5   TIME STEP    1
    SAVE BUDGET
    SAVE HEAD FOR ALL LAYERS
    PRINT HEAD FOR ALL LAYERS
 UBDSV2 SAVING "STREAMFLOW OUT  " ON UNIT  50 AT TIME STEP  1, STRESS PERIOD   5



 STREAM LISTING     PERIOD      5   STEP        1

 LAYER ROW COL. STREAM  RCH.  FLOW INTO     FLOW TO   FLOW OUT OF   OVRLND.     DIRECT     STREAM       STREAM     STREAM     STREAM   STREAMBED  STREAMBED
                SEG.NO.  NO.  STRM. RCH.    AQUIFER    STRM. RCH.    RUNOFF     PRECIP       ET          HEAD       DEPTH      WIDTH   CONDCTNC.   GRADIENT

   1   13    1     1     1    1.0000E+05 -9.5530E+02   1.0096E+05  0.000E+00  0.000E+00  0.000E+00  4.84064E+01  1.451E-01  2.000E+01  2.000E+04 -4.776E-02
   1   13    2     1     2    1.0096E+05 -1.8927E+03   1.0285E+05  0.000E+00  0.000E+00  0.000E+00  4.79304E+01  1.463E-01  2.000E+01  2.000E+04 -9.463E-02
   1   14    3     1     3    1.0285E+05 -3.9278E+02   1.0324E+05  0.000E+00  0.000E+00  0.000E+00  4.74541E+01  1.473E-01  2.000E+01  2.000E+04 -1.964E-02
   1   15    4     1     4    1.0324E+05 -3.7688E+02   1.0362E+05  0.000E+00  0.000E+00  0.000E+00  4.69772E+01  1.476E-01  2.000E+01  2.000E+04 -1.884E-02
   1   16    5     1     5    1.0362E+05 -1.3904E+03   1.0501E+05  0.000E+00  0.000E+00  0.000E+00  4.65006E+01  1.484E-01  2.000E+01  2.000E+04 -6.952E-02
   1   16    6     1     6    1.0501E+05 -9.2547E+02   1.0593E+05  0.000E+00  0.000E+00  0.000E+00  4.60243E+01  1.493E-01  2.000E+01  2.000E+04 -4.627E-02
   1   16    7     1     7    1.0593E+05 -9.3124E+02   1.0686E+05  0.000E+00  0.000E+00  0.000E+00  4.55479E+01  1.501E-01  2.000E+01  2.000E+04 -4.656E-02
   1   16    8     1     8    1.0686E+05 -9.4047E+02   1.0781E+05  0.000E+00  0.000E+00  0.000E+00  4.50714E+01  1.509E-01  2.000E+01  2.000E+04 -4.702E-02
   1   16    9     1     9    1.0781E+05 -9.4273E+02   1.0875E+05  0.000E+00  0.000E+00  0.000E+00  4.45949E+01  1.517E-01  2.000E+01  2.000E+04 -4.714E-02
   1   16   10     1    10    1.0875E+05 -9.5133E+02   1.0970E+05  0.000E+00  0.000E+00  0.000E+00  4.41184E+01  1.525E-01  2.000E+01  2.000E+04 -4.757E-02
   1   16   11     1    11    1.0970E+05 -1.0046E+03   1.1070E+05  0.000E+00  0.000E+00  0.000E+00  4.36420E+01  1.533E-01  2.000E+01  2.000E+04 -5.023E-02
   1   16   12     1    12    1.1070E+05 -1.7584E+03   1.1246E+05  0.000E+00  0.000E+00  0.000E+00  4.31658E+01  1.545E-01  2.000E+01  2.000E+04 -8.792E-02
   1   15   13     1    13    1.1246E+05 -1.5370E+03   1.1400E+05  0.000E+00  0.000E+00  0.000E+00  4.26899E+01  1.558E-01  2.000E+01  2.000E+04 -7.685E-02
   1   14   14     1    14    1.1400E+05 -1.7396E+03   1.1574E+05  0.000E+00  0.000E+00  0.000E+00  4.22140E+01  1.572E-01  2.000E+01  2.000E+04 -8.698E-02
   1   13   15     1    15    1.1574E+05 -2.0013E+03   1.1774E+05  0.000E+00  0.000E+00  0.000E+00  4.17383E+01  1.587E-01  2.000E+01  2.000E+04 -1.001E-01
   1   12   16     1    16    1.1774E+05 -2.5411E+03   1.2028E+05  0.000E+00  0.000E+00  0.000E+00  4.12628E+01  1.606E-01  2.000E+01  2.000E+04 -1.271E-01
   1   12   17     1    17    1.2028E+05 -1.7402E+03   1.2202E+05  0.000E+00  0.000E+00  0.000E+00  4.07873E+01  1.623E-01  2.000E+01  2.000E+04 -8.701E-02
   1   12   18     1    18    1.2202E+05 -1.6701E+03   1.2369E+05  0.000E+00  0.000E+00  0.000E+00  4.03114E+01  1.637E-01  2.000E+01  2.000E+04 -8.351E-02
   1   12   19     1    19    1.2369E+05 -2.1038E+03   1.2580E+05  0.000E+00  0.000E+00  0.000E+00  3.98356E+01  1.652E-01  2.000E+01  2.000E+04 -1.052E-01
   1   13   20     1    20    1.2580E+05 -1.6989E+03   1.2749E+05  0.000E+00  0.000E+00  0.000E+00  3.93599E+01  1.667E-01  2.000E+01  2.000E+04 -8.495E-02
   1   14   21     1    21    1.2749E+05 -1.7004E+03   1.2919E+05  0.000E+00  0.000E+00  0.000E+00  3.88839E+01  1.680E-01  2.000E+01  2.000E+04 -8.502E-02
   1   14   22     1    22    1.2919E+05  4.9002E+03   1.2429E+05  0.000E+00  0.000E+00  0.000E+00  3.84054E+01  1.668E-01  2.000E+01  2.000E+04  2.450E-01
   1    9   30     2     1    5.0000E+04  9.8613E+01   4.9901E+04  0.000E+00  0.000E+00  0.000E+00  4.02408E+01  1.158E-01  2.000E+01  2.000E+04  4.931E-03
   1    9   29     2     2    4.9901E+04 -1.1579E+02   5.0017E+04  0.000E+00  0.000E+00  0.000E+00  3.99908E+01  1.158E-01  2.000E+01  2.000E+04 -5.790E-03
   1    9   28     2     3    5.0017E+04 -1.7776E+02   5.0195E+04  0.000E+00  0.000E+00  0.000E+00  3.97410E+01  1.160E-01  2.000E+01  2.000E+04 -8.888E-03
   1    9   27     2     4    5.0195E+04 -5.8954E+02   5.0784E+04  0.000E+00  0.000E+00  0.000E+00  3.94915E+01  1.165E-01  2.000E+01  2.000E+04 -2.948E-02
   1   10   26     2     5    5.0784E+04 -6.3650E+02   5.1421E+04  0.000E+00  0.000E+00  0.000E+00  3.92424E+01  1.174E-01  2.000E+01  2.000E+04 -3.183E-02
   1   11   25     2     6    5.1421E+04 -8.6328E+02   5.2284E+04  0.000E+00  0.000E+00  0.000E+00  3.89934E+01  1.184E-01  2.000E+01  2.000E+04 -4.316E-02
   1   12   24     2     7    5.2284E+04 -1.1393E+03   5.3424E+04  0.000E+00  0.000E+00  0.000E+00  3.87448E+01  1.198E-01  2.000E+01  2.000E+04 -5.696E-02
   1   13   23     2     8    5.3424E+04 -1.9418E+02   5.3618E+04  0.000E+00  0.000E+00  0.000E+00  3.84957E+01  1.207E-01  2.000E+01  2.000E+04 -9.709E-03
   1   14   22     2     9    5.3618E+04  1.6860E+03   5.1932E+04  0.000E+00  0.000E+00  0.000E+00  3.82447E+01  1.197E-01  2.000E+01  2.000E+04  8.430E-02
   1   14   22     3     1    1.7623E+05 -8.6743E+03   1.8490E+05  0.000E+00  0.000E+00  0.000E+00  3.77267E+01  1.711E-01  2.000E+01  2.000E+04 -4.337E-01
   1   15   23     3     2    1.8490E+05 -5.5544E+02   1.8546E+05  0.000E+00  0.000E+00  0.000E+00  3.68404E+01  1.737E-01  2.000E+01  2.000E+04 -2.777E-02
   1   15   24     3     3    1.8546E+05 -2.7647E+02   1.8573E+05  0.000E+00  0.000E+00  0.000E+00  3.59517E+01  1.740E-01  2.000E+01  2.000E+04 -1.382E-02
   1   15   25     3     4    1.8573E+05 -2.6504E+02   1.8600E+05  0.000E+00  0.000E+00  0.000E+00  3.50630E+01  1.741E-01  2.000E+01  2.000E+04 -1.325E-02
   1   15   26     3     5    1.8600E+05 -3.0872E+02   1.8631E+05  0.000E+00  0.000E+00  0.000E+00  3.41743E+01  1.743E-01  2.000E+01  2.000E+04 -1.544E-02
   1   16   27     3     6    1.8631E+05 -3.4766E+02   1.8665E+05  0.000E+00  0.000E+00  0.000E+00  3.32856E+01  1.745E-01  2.000E+01  2.000E+04 -1.738E-02
   1   17   28     3     7    1.8665E+05 -1.5313E+03   1.8819E+05  0.000E+00  0.000E+00  0.000E+00  3.23972E+01  1.750E-01  2.000E+01  2.000E+04 -7.657E-02
   1   18   29     3     8    1.8819E+05 -2.9864E+03   1.9117E+05  0.000E+00  0.000E+00  0.000E+00  3.15096E+01  1.762E-01  2.000E+01  2.000E+04 -1.493E-01
   1   18   30     3     9    1.9117E+05 -3.2058E+03   1.9438E+05  0.000E+00  0.000E+00  0.000E+00  3.06224E+01  1.780E-01  2.000E+01  2.000E+04 -1.603E-01



1
              HEAD IN LAYER   1 AT END OF TIME STEP   1 IN STRESS PERIOD    5
  ---------------------------------------------------------------------------

          1      2      3      4      5      6      7      8      9     10
         11     12     13     14     15     16     17     18     19     20
         21     22     23     24     25     26     27     28     29     30
 .........................................................................
   1  ****** ****** ****** ****** ****** ****** ****** ****** ****** ******
      ****** ****** ****** ****** ****** ****** ****** ****** ****** ******
      ****** ****** ****** ****** ****** ****** ****** ****** ****** ******
   2  ****** ****** ****** ****** ****** ****** ****** ****** ****** ******
      ****** ****** ****** ****** ****** ****** ****** ****** ****** ******
      ****** ****** ****** ****** ****** ****** ****** ****** ****** ******
   3  ****** ****** ****** ****** ****** ****** ****** ****** ****** ******
      ****** ****** ****** ****** ****** ****** ****** ****** ****** ******
      ****** ****** ****** ****** ****** ****** ****** ****** ****** ******
   4  ****** ****** ****** ****** ****** ****** ****** ****** ****** ******
      ****** ****** ****** ****** ****** ****** ****** ****** ****** ******
      ****** ****** ****** ****** ****** ****** ****** ****** ****** ******
   5  ****** ****** ****** ****** ****** ****** ****** ****** ****** ******
      ****** ****** ****** ****** ****** ****** ****** ****** ****** ******
      ****** ****** ****** ****** ****** ****** ****** ****** ****** ******
   6  ****** ****** ****** ****** ****** ****** ****** ****** ****** ******
      ****** ****** ****** ****** ****** ****** ****** ****** ****** ******
      ****** ****** ****** ****** ****** ****** ****** ****** ****** ******
   7  ****** ****** ****** ****** ****** ****** ****** ****** ****** ******
      ****** ****** ****** ****** ****** ****** ****** ****** ****** ******
      ****** ****** ****** ****** ****** ****** ****** ****** ****** ******
   8  ****** ****** ****** ****** ****** ****** ****** ****** ****** ******
      ****** ****** ****** ****** ****** ****** ****** ****** ****** ******
      ****** ****** ****** ****** ****** ****** ****** ****** ****** ******
   9  ****** ****** ****** ****** ****** ****** ****** ****** ****** ******
      ****** ****** ****** ****** ****** ****** ****** ****** ****** ******
      ****** ****** ****** ****** ****** ****** ****** ****** ****** ******
  10  ****** ****** ****** ****** ****** ****** ****** ****** ****** ******
      ****** ****** ****** ****** ****** ****** ****** ****** ****** ******
      ****** ****** ****** ****** ****** ****** ****** ****** ****** ******
  11  ****** ****** ****** ****** ****** ****** ****** ****** ****** ******
      ****** ****** ****** ****** ****** ****** ****** ****** ****** ******
      ****** ****** ****** ****** ****** ****** ****** ****** ****** ******
  12  ****** ****** ****** ****** ****** ****** ****** ****** ****** ******
      ****** ****** ****** ****** ****** ****** ****** ****** ****** ******
      ****** ****** ****** ****** ****** ****** ****** ****** ****** ******
  13  ****** ****** ****** ****** ****** ****** ****** ****** ****** ******
      ****** ****** ****** ****** ****** ****** ****** ****** ****** ******
      ****** ****** ****** ****** ****** ****** ****** ****** ****** ******
  14  ****** ****** ****** ****** ****** ****** ****** ****** ****** ******
      ****** ****** ****** ****** ****** ****** ****** ****** ****** ******
      ****** ****** ****** ****** ****** ****** ****** ****** ****** ******
  15  ****** ****** ****** ****** ****** ****** ****** ****** ****** ******
      ****** ****** ****** ****** ****** ****** ****** ****** ****** ******
      ****** ****** ****** ****** ****** ****** ****** ****** ****** ******
  16  ****** ****** ****** ****** ****** ****** ****** ****** ****** ******
      ****** ****** ****** ****** ****** ****** ****** ****** ****** ******
      ****** ****** ****** ****** ****** ****** ****** ****** ****** ******
  17  ****** ****** ****** ****** ****** ****** ****** ****** ****** ******
      ****** ****** ****** ****** ****** ****** ****** ****** ****** ******
      ****** ****** ****** ****** ****** ****** ****** ****** ****** ******
  18  ****** ****** ****** ****** ****** ****** ****** ****** ****** ******
      ****** ****** ****** ****** ****** ****** ****** ****** ****** ******
      ****** ****** ****** ****** ****** ****** ****** ****** ****** ******
  19  ****** ****** ****** ****** ****** ****** ****** ****** ****** ******
      ****** ****** ****** ****** ****** ****** ****** ****** ****** ******
      ****** ****** ****** ****** ****** ****** ****** ****** ****** ******
  20  ****** ****** ****** ****** ****** ****** ****** ****** ****** ******
      ****** ****** ****** ****** ****** ****** ****** ****** ****** ******
      ****** ****** ****** ****** ****** ****** ****** ****** ****** ******
  21  ****** ****** ****** ****** ****** ****** ****** ****** ****** ******
      ****** ****** ****** ****** ****** ****** ****** ****** ****** ******
      ****** ****** ****** ****** ****** ****** ****** ****** ****** ******
  22  ****** ****** ****** ****** ****** ****** ****** ****** ****** ******
      ****** ****** ****** ****** ****** ****** ****** ****** ****** ******
      ****** ****** ****** ****** ****** ****** ****** ****** ****** ******
  23  ****** ****** ****** ****** ****** ****** ****** ****** ****** ******
      ****** ****** ****** ****** ****** ****** ****** ****** ****** ******
      ****** ****** ****** ****** ****** ****** ****** ****** ****** ******
  24  ****** ****** ****** ****** ****** ****** ****** ****** ****** ******
      ****** ****** ****** ****** ****** ****** ****** ****** ****** ******
      ****** ****** ****** ****** ****** ****** ****** ****** ****** ******
  25  ****** ****** ****** ****** ****** ****** ****** ****** ****** ******
      ****** ****** ****** ****** ****** ****** ****** ****** ****** ******
      ****** ****** ****** ****** ****** ****** ****** ****** ****** ******

 HEAD WILL BE SAVED ON UNIT   51 AT END OF TIME STEP    1, STRESS PERIOD    5
1
  VOLUMETRIC BUDGET FOR ENTIRE MODEL AT END OF TIME STEP    1, STRESS PERIOD   5
  ------------------------------------------------------------------------------

     CUMULATIVE VOLUMES      L**3       RATES FOR THIS TIME STEP      L**3/T
     ------------------                 ------------------------

           IN:                                      IN:
           ---                                      ---
             STORAGE =    32743746.2472               STORAGE =       20887.1082
       CONSTANT HEAD =    11559627.1525         CONSTANT HEAD =       34365.4878
               WELLS =           0.0000                 WELLS =           0.0000
            RECHARGE =    10074000.0000              RECHARGE =       13800.0000
      STREAM LEAKAGE =     2607993.5541        STREAM LEAKAGE =        6684.8168

            TOTAL IN =    56985366.9539              TOTAL IN =       75737.4128

          OUT:                                     OUT:
          ----                                     ----
             STORAGE =        1174.6489               STORAGE =           0.0000
       CONSTANT HEAD =           0.0000         CONSTANT HEAD =           0.0000
               WELLS =    11276560.4476                 WELLS =       24675.1870
            RECHARGE =           0.0000              RECHARGE =           0.0000
      STREAM LEAKAGE =    45707634.2390        STREAM LEAKAGE =       51062.2293

           TOTAL OUT =    56985369.3355             TOTAL OUT =       75737.4163

            IN - OUT =          -2.3816              IN - OUT =      -3.4832E-03

 PERCENT DISCREPANCY =          -0.00     PERCENT DISCREPANCY =          -0.00






         TIME SUMMARY AT END OF TIME STEP    1 IN STRESS PERIOD    5
                    SECONDS     MINUTES      HOURS       DAYS        YEARS
                    -----------------------------------------------------------
   TIME STEP LENGTH 7.94880E+06 1.32480E+05  2208.0      92.000     0.25188    
 STRESS PERIOD TIME 7.94880E+06 1.32480E+05  2208.0      92.000     0.25188    
         TOTAL TIME 3.94848E+07 6.58080E+05  10968.      457.00      1.2512    
1
1
                            STRESS PERIOD NO.    6, LENGTH =   91.00000    
                            -----------------------------------------------

                              NUMBER OF TIME STEPS =     1

                               MULTIPLIER FOR DELT =     1.500

                            INITIAL TIME STEP SIZE =   91.00000    

 WELL NO.  LAYER   ROW   COL   STRESS RATE         
 --------------------------------------------------
      1      1      6     26      -9457.    
      2      1     23      4      -2056.    
      3      1     12     10      -1573.    
      4      1      4      5     -0.1159E+05

      4 WELLS

                 RECHARGE =  2.000000E-03

 REUSING STREAM SEGMENT DATA FROM LAST STRESS PERIOD
 
 SOLVING FOR HEAD 


     7 CALLS TO PCG ROUTINE FOR TIME STEP   1 IN STRESS PERIOD    6
    26 TOTAL ITERATIONS

 OUTPUT CONTROL FOR STRESS PERIOD    6   TIME STEP    1
    SAVE BUDGET
    SAVE HEAD FOR ALL LAYERS
    PRINT HEAD FOR ALL LAYERS
 UBDSV2 SAVING "STREAMFLOW OUT  " ON UNIT  50 AT TIME STEP  1, STRESS PERIOD   6



 STREAM LISTING     PERIOD      6   STEP        1

 LAYER ROW COL. STREAM  RCH.  FLOW INTO     FLOW TO   FLOW OUT OF   OVRLND.     DIRECT     STREAM       STREAM     STREAM     STREAM   STREAMBED  STREAMBED
                SEG.NO.  NO.  STRM. RCH.    AQUIFER    STRM. RCH.    RUNOFF     PRECIP       ET          HEAD       DEPTH      WIDTH   CONDCTNC.   GRADIENT

   1   13    1     1     1    1.0000E+05 -1.1916E+03   1.0119E+05  0.000E+00  0.000E+00  0.000E+00  4.84065E+01  1.452E-01  2.000E+01  2.000E+04 -5.958E-02
   1   13    2     1     2    1.0119E+05 -2.1467E+03   1.0334E+05  0.000E+00  0.000E+00  0.000E+00  4.79307E+01  1.466E-01  2.000E+01  2.000E+04 -1.073E-01
   1   14    3     1     3    1.0334E+05 -5.3542E+02   1.0387E+05  0.000E+00  0.000E+00  0.000E+00  4.74546E+01  1.478E-01  2.000E+01  2.000E+04 -2.677E-02
   1   15    4     1     4    1.0387E+05 -5.3370E+02   1.0441E+05  0.000E+00  0.000E+00  0.000E+00  4.69778E+01  1.482E-01  2.000E+01  2.000E+04 -2.668E-02
   1   16    5     1     5    1.0441E+05 -1.8776E+03   1.0629E+05  0.000E+00  0.000E+00  0.000E+00  4.65015E+01  1.492E-01  2.000E+01  2.000E+04 -9.388E-02
   1   16    6     1     6    1.0629E+05 -1.2079E+03   1.0749E+05  0.000E+00  0.000E+00  0.000E+00  4.60256E+01  1.506E-01  2.000E+01  2.000E+04 -6.039E-02
   1   16    7     1     7    1.0749E+05 -1.1982E+03   1.0869E+05  0.000E+00  0.000E+00  0.000E+00  4.55493E+01  1.516E-01  2.000E+01  2.000E+04 -5.991E-02
   1   16    8     1     8    1.0869E+05 -1.2035E+03   1.0989E+05  0.000E+00  0.000E+00  0.000E+00  4.50730E+01  1.526E-01  2.000E+01  2.000E+04 -6.017E-02
   1   16    9     1     9    1.0989E+05 -1.2068E+03   1.1110E+05  0.000E+00  0.000E+00  0.000E+00  4.45968E+01  1.536E-01  2.000E+01  2.000E+04 -6.034E-02
   1   16   10     1    10    1.1110E+05 -1.2193E+03   1.1232E+05  0.000E+00  0.000E+00  0.000E+00  4.41205E+01  1.546E-01  2.000E+01  2.000E+04 -6.097E-02
   1   16   11     1    11    1.1232E+05 -1.2789E+03   1.1360E+05  0.000E+00  0.000E+00  0.000E+00  4.36443E+01  1.556E-01  2.000E+01  2.000E+04 -6.394E-02
   1   16   12     1    12    1.1360E+05 -2.1998E+03   1.1580E+05  0.000E+00  0.000E+00  0.000E+00  4.31684E+01  1.571E-01  2.000E+01  2.000E+04 -1.100E-01
   1   15   13     1    13    1.1580E+05 -1.9736E+03   1.1777E+05  0.000E+00  0.000E+00  0.000E+00  4.26929E+01  1.588E-01  2.000E+01  2.000E+04 -9.868E-02
   1   14   14     1    14    1.1777E+05 -2.1609E+03   1.1993E+05  0.000E+00  0.000E+00  0.000E+00  4.22173E+01  1.604E-01  2.000E+01  2.000E+04 -1.080E-01
   1   13   15     1    15    1.1993E+05 -2.3945E+03   1.2233E+05  0.000E+00  0.000E+00  0.000E+00  4.17418E+01  1.623E-01  2.000E+01  2.000E+04 -1.197E-01
   1   12   16     1    16    1.2233E+05 -2.8732E+03   1.2520E+05  0.000E+00  0.000E+00  0.000E+00  4.12667E+01  1.644E-01  2.000E+01  2.000E+04 -1.437E-01
   1   12   17     1    17    1.2520E+05 -2.0297E+03   1.2723E+05  0.000E+00  0.000E+00  0.000E+00  4.07913E+01  1.663E-01  2.000E+01  2.000E+04 -1.015E-01
   1   12   18     1    18    1.2723E+05 -1.9686E+03   1.2920E+05  0.000E+00  0.000E+00  0.000E+00  4.03156E+01  1.679E-01  2.000E+01  2.000E+04 -9.843E-02
   1   12   19     1    19    1.2920E+05 -2.4759E+03   1.3168E+05  0.000E+00  0.000E+00  0.000E+00  3.98401E+01  1.697E-01  2.000E+01  2.000E+04 -1.238E-01
   1   13   20     1    20    1.3168E+05 -2.1152E+03   1.3379E+05  0.000E+00  0.000E+00  0.000E+00  3.93646E+01  1.714E-01  2.000E+01  2.000E+04 -1.058E-01
   1   14   21     1    21    1.3379E+05 -2.1163E+03   1.3591E+05  0.000E+00  0.000E+00  0.000E+00  3.88890E+01  1.731E-01  2.000E+01  2.000E+04 -1.058E-01
   1   14   22     1    22    1.3591E+05  4.7895E+03   1.3112E+05  0.000E+00  0.000E+00  0.000E+00  3.84107E+01  1.720E-01  2.000E+01  2.000E+04  2.395E-01
   1    9   30     2     1    5.0000E+04 -2.5912E+02   5.0259E+04  0.000E+00  0.000E+00  0.000E+00  4.02410E+01  1.160E-01  2.000E+01  2.000E+04 -1.296E-02
   1    9   29     2     2    5.0259E+04 -4.6877E+02   5.0728E+04  0.000E+00  0.000E+00  0.000E+00  3.99916E+01  1.166E-01  2.000E+01  2.000E+04 -2.344E-02
   1    9   28     2     3    5.0728E+04 -5.2292E+02   5.1251E+04  0.000E+00  0.000E+00  0.000E+00  3.97422E+01  1.172E-01  2.000E+01  2.000E+04 -2.615E-02
   1    9   27     2     4    5.1251E+04 -1.0203E+03   5.2271E+04  0.000E+00  0.000E+00  0.000E+00  3.94933E+01  1.183E-01  2.000E+01  2.000E+04 -5.101E-02
   1   10   26     2     5    5.2271E+04 -1.0943E+03   5.3365E+04  0.000E+00  0.000E+00  0.000E+00  3.92447E+01  1.197E-01  2.000E+01  2.000E+04 -5.471E-02
   1   11   25     2     6    5.3365E+04 -1.3072E+03   5.4673E+04  0.000E+00  0.000E+00  0.000E+00  3.89964E+01  1.214E-01  2.000E+01  2.000E+04 -6.536E-02
   1   12   24     2     7    5.4673E+04 -1.5384E+03   5.6211E+04  0.000E+00  0.000E+00  0.000E+00  3.87483E+01  1.233E-01  2.000E+01  2.000E+04 -7.692E-02
   1   13   23     2     8    5.6211E+04 -3.3033E+02   5.6541E+04  0.000E+00  0.000E+00  0.000E+00  3.84995E+01  1.245E-01  2.000E+01  2.000E+04 -1.652E-02
   1   14   22     2     9    5.6541E+04  1.5501E+03   5.4991E+04  0.000E+00  0.000E+00  0.000E+00  3.82487E+01  1.237E-01  2.000E+01  2.000E+04  7.750E-02
   1   14   22     3     1    1.8611E+05 -8.7790E+03   1.9489E+05  0.000E+00  0.000E+00  0.000E+00  3.77323E+01  1.767E-01  2.000E+01  2.000E+04 -4.389E-01
   1   15   23     3     2    1.9489E+05 -6.9455E+02   1.9558E+05  0.000E+00  0.000E+00  0.000E+00  3.68460E+01  1.793E-01  2.000E+01  2.000E+04 -3.473E-02
   1   15   24     3     3    1.9558E+05 -3.9944E+02   1.9598E+05  0.000E+00  0.000E+00  0.000E+00  3.59574E+01  1.796E-01  2.000E+01  2.000E+04 -1.997E-02
   1   15   25     3     4    1.9598E+05 -3.9235E+02   1.9637E+05  0.000E+00  0.000E+00  0.000E+00  3.50687E+01  1.798E-01  2.000E+01  2.000E+04 -1.962E-02
   1   15   26     3     5    1.9637E+05 -4.6071E+02   1.9684E+05  0.000E+00  0.000E+00  0.000E+00  3.41801E+01  1.801E-01  2.000E+01  2.000E+04 -2.304E-02
   1   16   27     3     6    1.9684E+05 -5.1746E+02   1.9735E+05  0.000E+00  0.000E+00  0.000E+00  3.32915E+01  1.803E-01  2.000E+01  2.000E+04 -2.587E-02
   1   17   28     3     7    1.9735E+05 -1.9981E+03   1.9935E+05  0.000E+00  0.000E+00  0.000E+00  3.24033E+01  1.810E-01  2.000E+01  2.000E+04 -9.991E-02
   1   18   29     3     8    1.9935E+05 -3.4346E+03   2.0279E+05  0.000E+00  0.000E+00  0.000E+00  3.15159E+01  1.825E-01  2.000E+01  2.000E+04 -1.717E-01
   1   18   30     3     9    2.0279E+05 -3.5673E+03   2.0635E+05  0.000E+00  0.000E+00  0.000E+00  3.06289E+01  1.844E-01  2.000E+01  2.000E+04 -1.784E-01



1
              HEAD IN LAYER   1 AT END OF TIME STEP   1 IN STRESS PERIOD    6
  ---------------------------------------------------------------------------

          1      2      3      4      5      6      7      8      9     10
         11     12     13     14     15     16     17     18     19     20
         21     22     23     24     25     26     27     28     29     30
 .........................................................................
   1  ****** ****** ****** ****** ****** ****** ****** ****** ****** ******
      ****** ****** ****** ****** ****** ****** ****** ****** ****** ******
      ****** ****** ****** ****** ****** ****** ****** ****** ****** ******
   2  ****** ****** ****** ****** ****** ****** ****** ****** ****** ******
      ****** ****** ****** ****** ****** ****** ****** ****** ****** ******
      ****** ****** ****** ****** ****** ****** ****** ****** ****** ******
   3  ****** ****** ****** ****** ****** ****** ****** ****** ****** ******
      ****** ****** ****** ****** ****** ****** ****** ****** ****** ******
      ****** ****** ****** ****** ****** ****** ****** ****** ****** ******
   4  ****** ****** ****** ****** ****** ****** ****** ****** ****** ******
      ****** ****** ****** ****** ****** ****** ****** ****** ****** ******
      ****** ****** ****** ****** ****** ****** ****** ****** ****** ******
   5  ****** ****** ****** ****** ****** ****** ****** ****** ****** ******
      ****** ****** ****** ****** ****** ****** ****** ****** ****** ******
      ****** ****** ****** ****** ****** ****** ****** ****** ****** ******
   6  ****** ****** ****** ****** ****** ****** ****** ****** ****** ******
      ****** ****** ****** ****** ****** ****** ****** ****** ****** ******
      ****** ****** ****** ****** ****** ****** ****** ****** ****** ******
   7  ****** ****** ****** ****** ****** ****** ****** ****** ****** ******
      ****** ****** ****** ****** ****** ****** ****** ****** ****** ******
      ****** ****** ****** ****** ****** ****** ****** ****** ****** ******
   8  ****** ****** ****** ****** ****** ****** ****** ****** ****** ******
      ****** ****** ****** ****** ****** ****** ****** ****** ****** ******
      ****** ****** ****** ****** ****** ****** ****** ****** ****** ******
   9  ****** ****** ****** ****** ****** ****** ****** ****** ****** ******
      ****** ****** ****** ****** ****** ****** ****** ****** ****** ******
      ****** ****** ****** ****** ****** ****** ****** ****** ****** ******
  10  ****** ****** ****** ****** ****** ****** ****** ****** ****** ******
      ****** ****** ****** ****** ****** ****** ****** ****** ****** ******
      ****** ****** ****** ****** ****** ****** ****** ****** ****** ******
  11  ****** ****** ****** ****** ****** ****** ****** ****** ****** ******
      ****** ****** ****** ****** ****** ****** ****** ****** ****** ******
      ****** ****** ****** ****** ****** ****** ****** ****** ****** ******
  12  ****** ****** ****** ****** ****** ****** ****** ****** ****** ******
      ****** ****** ****** ****** ****** ****** ****** ****** ****** ******
      ****** ****** ****** ****** ****** ****** ****** ****** ****** ******
  13  ****** ****** ****** ****** ****** ****** ****** ****** ****** ******
      ****** ****** ****** ****** ****** ****** ****** ****** ****** ******
      ****** ****** ****** ****** ****** ****** ****** ****** ****** ******
  14  ****** ****** ****** ****** ****** ****** ****** ****** ****** ******
      ****** ****** ****** ****** ****** ****** ****** ****** ****** ******
      ****** ****** ****** ****** ****** ****** ****** ****** ****** ******
  15  ****** ****** ****** ****** ****** ****** ****** ****** ****** ******
      ****** ****** ****** ****** ****** ****** ****** ****** ****** ******
      ****** ****** ****** ****** ****** ****** ****** ****** ****** ******
  16  ****** ****** ****** ****** ****** ****** ****** ****** ****** ******
      ****** ****** ****** ****** ****** ****** ****** ****** ****** ******
      ****** ****** ****** ****** ****** ****** ****** ****** ****** ******
  17  ****** ****** ****** ****** ****** ****** ****** ****** ****** ******
      ****** ****** ****** ****** ****** ****** ****** ****** ****** ******
      ****** ****** ****** ****** ****** ****** ****** ****** ****** ******
  18  ****** ****** ****** ****** ****** ****** ****** ****** ****** ******
      ****** ****** ****** ****** ****** ****** ****** ****** ****** ******
      ****** ****** ****** ****** ****** ****** ****** ****** ****** ******
  19  ****** ****** ****** ****** ****** ****** ****** ****** ****** ******
      ****** ****** ****** ****** ****** ****** ****** ****** ****** ******
      ****** ****** ****** ****** ****** ****** ****** ****** ****** ******
  20  ****** ****** ****** ****** ****** ****** ****** ****** ****** ******
      ****** ****** ****** ****** ****** ****** ****** ****** ****** ******
      ****** ****** ****** ****** ****** ****** ****** ****** ****** ******
  21  ****** ****** ****** ****** ****** ****** ****** ****** ****** ******
      ****** ****** ****** ****** ****** ****** ****** ****** ****** ******
      ****** ****** ****** ****** ****** ****** ****** ****** ****** ******
  22  ****** ****** ****** ****** ****** ****** ****** ****** ****** ******
      ****** ****** ****** ****** ****** ****** ****** ****** ****** ******
      ****** ****** ****** ****** ****** ****** ****** ****** ****** ******
  23  ****** ****** ****** ****** ****** ****** ****** ****** ****** ******
      ****** ****** ****** ****** ****** ****** ****** ****** ****** ******
      ****** ****** ****** ****** ****** ****** ****** ****** ****** ******
  24  ****** ****** ****** ****** ****** ****** ****** ****** ****** ******
      ****** ****** ****** ****** ****** ****** ****** ****** ****** ******
      ****** ****** ****** ****** ****** ****** ****** ****** ****** ******
  25  ****** ****** ****** ****** ****** ****** ****** ****** ****** ******
      ****** ****** ****** ****** ****** ****** ****** ****** ****** ******
      ****** ****** ****** ****** ****** ****** ****** ****** ****** ******

 HEAD WILL BE SAVED ON UNIT   51 AT END OF TIME STEP    1, STRESS PERIOD    6
1
  VOLUMETRIC BUDGET FOR ENTIRE MODEL AT END OF TIME STEP    1, STRESS PERIOD   6
  ------------------------------------------------------------------------------

     CUMULATIVE VOLUMES      L**3       RATES FOR THIS TIME STEP      L**3/T
     ------------------                 ------------------------

           IN:                                      IN:
           ---                                      ---
             STORAGE =    32807600.5991               STORAGE =         701.6962
       CONSTANT HEAD =    14532418.0208         CONSTANT HEAD =       32668.0315
               WELLS =           0.0000                 WELLS =           0.0000
            RECHARGE =    15097200.0000              RECHARGE =       55200.0000
      STREAM LEAKAGE =     3184892.5090        STREAM LEAKAGE =        6339.5490

            TOTAL IN =    65622111.1289              TOTAL IN =       94909.2766

          OUT:                                     OUT:
          ----                                     ----
             STORAGE =      687481.7137               STORAGE =        7541.8359
       CONSTANT HEAD =           0.0000         CONSTANT HEAD =           0.0000
               WELLS =    13522002.4623                 WELLS =       24675.1870
            RECHARGE =           0.0000              RECHARGE =           0.0000
      STREAM LEAKAGE =    51412629.0898        STREAM LEAKAGE =       62692.2511

           TOTAL OUT =    65622113.2657             TOTAL OUT =       94909.2740

            IN - OUT =          -2.1369              IN - OUT =       2.6893E-03

 PERCENT DISCREPANCY =          -0.00     PERCENT DISCREPANCY =           0.00






         TIME SUMMARY AT END OF TIME STEP    1 IN STRESS PERIOD    6
                    SECONDS     MINUTES      HOURS       DAYS        YEARS
                    -----------------------------------------------------------
   TIME STEP LENGTH 7.86240E+06 1.31040E+05  2184.0      91.000     0.24914    
 STRESS PERIOD TIME 7.86240E+06 1.31040E+05  2184.0      91.000     0.24914    
         TOTAL TIME 4.73472E+07 7.89120E+05  13152.      548.00      1.5003    
1
1
                            STRESS PERIOD NO.    7, LENGTH =   91.00000    
                            -----------------------------------------------

                              NUMBER OF TIME STEPS =     1

                               MULTIPLIER FOR DELT =     1.500

                            INITIAL TIME STEP SIZE =   91.00000    

 WELL NO.  LAYER   ROW   COL   STRESS RATE         
 --------------------------------------------------
      1      1      6     26      -9457.    
      2      1     23      4      -2056.    
      3      1     12     10      -1573.    
      4      1      4      5     -0.1159E+05

      4 WELLS

                 RECHARGE =   0.00000    

 REUSING STREAM SEGMENT DATA FROM LAST STRESS PERIOD
 
 SOLVING FOR HEAD 


     7 CALLS TO PCG ROUTINE FOR TIME STEP   1 IN STRESS PERIOD    7
    26 TOTAL ITERATIONS

 OUTPUT CONTROL FOR STRESS PERIOD    7   TIME STEP    1
    SAVE BUDGET
    SAVE HEAD FOR ALL LAYERS
    PRINT HEAD FOR ALL LAYERS
 UBDSV2 SAVING "STREAMFLOW OUT  " ON UNIT  50 AT TIME STEP  1, STRESS PERIOD   7



 STREAM LISTING     PERIOD      7   STEP        1

 LAYER ROW COL. STREAM  RCH.  FLOW INTO     FLOW TO   FLOW OUT OF   OVRLND.     DIRECT     STREAM       STREAM     STREAM     STREAM   STREAMBED  STREAMBED
                SEG.NO.  NO.  STRM. RCH.    AQUIFER    STRM. RCH.    RUNOFF     PRECIP       ET          HEAD       DEPTH      WIDTH   CONDCTNC.   GRADIENT

   1   13    1     1     1    1.0000E+05 -4.7068E+02   1.0047E+05  0.000E+00  0.000E+00  0.000E+00  4.84062E+01  1.449E-01  2.000E+01  2.000E+04 -2.353E-02
   1   13    2     1     2    1.0047E+05 -1.3375E+03   1.0181E+05  0.000E+00  0.000E+00  0.000E+00  4.79297E+01  1.456E-01  2.000E+01  2.000E+04 -6.687E-02
   1   14    3     1     3    1.0181E+05 -2.7436E+02   1.0208E+05  0.000E+00  0.000E+00  0.000E+00  4.74532E+01  1.463E-01  2.000E+01  2.000E+04 -1.372E-02
   1   15    4     1     4    1.0208E+05 -2.6383E+02   1.0235E+05  0.000E+00  0.000E+00  0.000E+00  4.69761E+01  1.466E-01  2.000E+01  2.000E+04 -1.319E-02
   1   16    5     1     5    1.0235E+05 -1.1186E+03   1.0346E+05  0.000E+00  0.000E+00  0.000E+00  4.64994E+01  1.472E-01  2.000E+01  2.000E+04 -5.593E-02
   1   16    6     1     6    1.0346E+05 -7.4711E+02   1.0421E+05  0.000E+00  0.000E+00  0.000E+00  4.60230E+01  1.480E-01  2.000E+01  2.000E+04 -3.736E-02
   1   16    7     1     7    1.0421E+05 -7.5546E+02   1.0497E+05  0.000E+00  0.000E+00  0.000E+00  4.55463E+01  1.486E-01  2.000E+01  2.000E+04 -3.777E-02
   1   16    8     1     8    1.0497E+05 -7.6712E+02   1.0573E+05  0.000E+00  0.000E+00  0.000E+00  4.50697E+01  1.492E-01  2.000E+01  2.000E+04 -3.836E-02
   1   16    9     1     9    1.0573E+05 -7.7459E+02   1.0651E+05  0.000E+00  0.000E+00  0.000E+00  4.45931E+01  1.499E-01  2.000E+01  2.000E+04 -3.873E-02
   1   16   10     1    10    1.0651E+05 -7.9122E+02   1.0730E+05  0.000E+00  0.000E+00  0.000E+00  4.41165E+01  1.506E-01  2.000E+01  2.000E+04 -3.956E-02
   1   16   11     1    11    1.0730E+05 -8.5159E+02   1.0815E+05  0.000E+00  0.000E+00  0.000E+00  4.36399E+01  1.513E-01  2.000E+01  2.000E+04 -4.258E-02
   1   16   12     1    12    1.0815E+05 -1.4803E+03   1.0963E+05  0.000E+00  0.000E+00  0.000E+00  4.31636E+01  1.522E-01  2.000E+01  2.000E+04 -7.402E-02
   1   15   13     1    13    1.0963E+05 -1.1914E+03   1.1082E+05  0.000E+00  0.000E+00  0.000E+00  4.26874E+01  1.534E-01  2.000E+01  2.000E+04 -5.957E-02
   1   14   14     1    14    1.1082E+05 -1.3434E+03   1.1217E+05  0.000E+00  0.000E+00  0.000E+00  4.22112E+01  1.544E-01  2.000E+01  2.000E+04 -6.717E-02
   1   13   15     1    15    1.1217E+05 -1.5689E+03   1.1374E+05  0.000E+00  0.000E+00  0.000E+00  4.17352E+01  1.556E-01  2.000E+01  2.000E+04 -7.844E-02
   1   12   16     1    16    1.1374E+05 -2.0433E+03   1.1578E+05  0.000E+00  0.000E+00  0.000E+00  4.12594E+01  1.571E-01  2.000E+01  2.000E+04 -1.022E-01
   1   12   17     1    17    1.1578E+05 -1.4360E+03   1.1722E+05  0.000E+00  0.000E+00  0.000E+00  4.07835E+01  1.585E-01  2.000E+01  2.000E+04 -7.180E-02
   1   12   18     1    18    1.1722E+05 -1.3925E+03   1.1861E+05  0.000E+00  0.000E+00  0.000E+00  4.03074E+01  1.597E-01  2.000E+01  2.000E+04 -6.963E-02
   1   12   19     1    19    1.1861E+05 -1.7729E+03   1.2038E+05  0.000E+00  0.000E+00  0.000E+00  3.98314E+01  1.610E-01  2.000E+01  2.000E+04 -8.865E-02
   1   13   20     1    20    1.2038E+05 -1.4413E+03   1.2182E+05  0.000E+00  0.000E+00  0.000E+00  3.93554E+01  1.623E-01  2.000E+01  2.000E+04 -7.207E-02
   1   14   21     1    21    1.2182E+05 -1.4578E+03   1.2328E+05  0.000E+00  0.000E+00  0.000E+00  3.88793E+01  1.634E-01  2.000E+01  2.000E+04 -7.289E-02
   1   14   22     1    22    1.2328E+05  4.9473E+03   1.1833E+05  0.000E+00  0.000E+00  0.000E+00  3.84007E+01  1.620E-01  2.000E+01  2.000E+04  2.474E-01
   1    9   30     2     1    5.0000E+04  2.5810E+02   4.9742E+04  0.000E+00  0.000E+00  0.000E+00  4.02407E+01  1.157E-01  2.000E+01  2.000E+04  1.291E-02
   1    9   29     2     2    4.9742E+04  4.6956E+01   4.9695E+04  0.000E+00  0.000E+00  0.000E+00  3.99905E+01  1.155E-01  2.000E+01  2.000E+04  2.348E-03
   1    9   28     2     3    4.9695E+04 -5.0722E+00   4.9700E+04  0.000E+00  0.000E+00  0.000E+00  3.97404E+01  1.154E-01  2.000E+01  2.000E+04 -2.536E-04
   1    9   27     2     4    4.9700E+04 -3.1314E+02   5.0013E+04  0.000E+00  0.000E+00  0.000E+00  3.94907E+01  1.157E-01  2.000E+01  2.000E+04 -1.566E-02
   1   10   26     2     5    5.0013E+04 -3.8679E+02   5.0400E+04  0.000E+00  0.000E+00  0.000E+00  3.92412E+01  1.162E-01  2.000E+01  2.000E+04 -1.934E-02
   1   11   25     2     6    5.0400E+04 -6.2881E+02   5.1029E+04  0.000E+00  0.000E+00  0.000E+00  3.89919E+01  1.169E-01  2.000E+01  2.000E+04 -3.144E-02
   1   12   24     2     7    5.1029E+04 -9.1914E+02   5.1948E+04  0.000E+00  0.000E+00  0.000E+00  3.87429E+01  1.179E-01  2.000E+01  2.000E+04 -4.596E-02
   1   13   23     2     8    5.1948E+04 -1.3725E+02   5.2085E+04  0.000E+00  0.000E+00  0.000E+00  3.84936E+01  1.186E-01  2.000E+01  2.000E+04 -6.862E-03
   1   14   22     2     9    5.2085E+04  1.7844E+03   5.0301E+04  0.000E+00  0.000E+00  0.000E+00  3.82425E+01  1.175E-01  2.000E+01  2.000E+04  8.922E-02
   1   14   22     3     1    1.6863E+05 -8.6200E+03   1.7725E+05  0.000E+00  0.000E+00  0.000E+00  3.77223E+01  1.667E-01  2.000E+01  2.000E+04 -4.310E-01
   1   15   23     3     2    1.7725E+05 -4.8953E+02   1.7774E+05  0.000E+00  0.000E+00  0.000E+00  3.68360E+01  1.694E-01  2.000E+01  2.000E+04 -2.448E-02
   1   15   24     3     3    1.7774E+05 -2.2665E+02   1.7797E+05  0.000E+00  0.000E+00  0.000E+00  3.59473E+01  1.696E-01  2.000E+01  2.000E+04 -1.133E-02
   1   15   25     3     4    1.7797E+05 -2.1640E+02   1.7819E+05  0.000E+00  0.000E+00  0.000E+00  3.50586E+01  1.697E-01  2.000E+01  2.000E+04 -1.082E-02
   1   15   26     3     5    1.7819E+05 -2.6001E+02   1.7845E+05  0.000E+00  0.000E+00  0.000E+00  3.41698E+01  1.698E-01  2.000E+01  2.000E+04 -1.300E-02
   1   16   27     3     6    1.7845E+05 -2.8604E+02   1.7873E+05  0.000E+00  0.000E+00  0.000E+00  3.32811E+01  1.700E-01  2.000E+01  2.000E+04 -1.430E-02
   1   17   28     3     7    1.7873E+05 -1.3598E+03   1.8009E+05  0.000E+00  0.000E+00  0.000E+00  3.23927E+01  1.705E-01  2.000E+01  2.000E+04 -6.799E-02
   1   18   29     3     8    1.8009E+05 -2.7553E+03   1.8285E+05  0.000E+00  0.000E+00  0.000E+00  3.15050E+01  1.716E-01  2.000E+01  2.000E+04 -1.378E-01
   1   18   30     3     9    1.8285E+05 -3.0429E+03   1.8589E+05  0.000E+00  0.000E+00  0.000E+00  3.06177E+01  1.733E-01  2.000E+01  2.000E+04 -1.521E-01



1
              HEAD IN LAYER   1 AT END OF TIME STEP   1 IN STRESS PERIOD    7
  ---------------------------------------------------------------------------

          1      2      3      4      5      6      7      8      9     10
         11     12     13     14     15     16     17     18     19     20
         21     22     23     24     25     26     27     28     29     30
 .........................................................................
   1  ****** ****** ****** ****** ****** ****** ****** ****** ****** ******
      ****** ****** ****** ****** ****** ****** ****** ****** ****** ******
      ****** ****** ****** ****** ****** ****** ****** ****** ****** ******
   2  ****** ****** ****** ****** ****** ****** ****** ****** ****** ******
      ****** ****** ****** ****** ****** ****** ****** ****** ****** ******
      ****** ****** ****** ****** ****** ****** ****** ****** ****** ******
   3  ****** ****** ****** ****** ****** ****** ****** ****** ****** ******
      ****** ****** ****** ****** ****** ****** ****** ****** ****** ******
      ****** ****** ****** ****** ****** ****** ****** ****** ****** ******
   4  ****** ****** ****** ****** ****** ****** ****** ****** ****** ******
      ****** ****** ****** ****** ****** ****** ****** ****** ****** ******
      ****** ****** ****** ****** ****** ****** ****** ****** ****** ******
   5  ****** ****** ****** ****** ****** ****** ****** ****** ****** ******
      ****** ****** ****** ****** ****** ****** ****** ****** ****** ******
      ****** ****** ****** ****** ****** ****** ****** ****** ****** ******
   6  ****** ****** ****** ****** ****** ****** ****** ****** ****** ******
      ****** ****** ****** ****** ****** ****** ****** ****** ****** ******
      ****** ****** ****** ****** ****** ****** ****** ****** ****** ******
   7  ****** ****** ****** ****** ****** ****** ****** ****** ****** ******
      ****** ****** ****** ****** ****** ****** ****** ****** ****** ******
      ****** ****** ****** ****** ****** ****** ****** ****** ****** ******
   8  ****** ****** ****** ****** ****** ****** ****** ****** ****** ******
      ****** ****** ****** ****** ****** ****** ****** ****** ****** ******
      ****** ****** ****** ****** ****** ****** ****** ****** ****** ******
   9  ****** ****** ****** ****** ****** ****** ****** ****** ****** ******
      ****** ****** ****** ****** ****** ****** ****** ****** ****** ******
      ****** ****** ****** ****** ****** ****** ****** ****** ****** ******
  10  ****** ****** ****** ****** ****** ****** ****** ****** ****** ******
      ****** ****** ****** ****** ****** ****** ****** ****** ****** ******
      ****** ****** ****** ****** ****** ****** ****** ****** ****** ******
  11  ****** ****** ****** ****** ****** ****** ****** ****** ****** ******
      ****** ****** ****** ****** ****** ****** ****** ****** ****** ******
      ****** ****** ****** ****** ****** ****** ****** ****** ****** ******
  12  ****** ****** ****** ****** ****** ****** ****** ****** ****** ******
      ****** ****** ****** ****** ****** ****** ****** ****** ****** ******
      ****** ****** ****** ****** ****** ****** ****** ****** ****** ******
  13  ****** ****** ****** ****** ****** ****** ****** ****** ****** ******
      ****** ****** ****** ****** ****** ****** ****** ****** ****** ******
      ****** ****** ****** ****** ****** ****** ****** ****** ****** ******
  14  ****** ****** ****** ****** ****** ****** ****** ****** ****** ******
      ****** ****** ****** ****** ****** ****** ****** ****** ****** ******
      ****** ****** ****** ****** ****** ****** ****** ****** ****** ******
  15  ****** ****** ****** ****** ****** ****** ****** ****** ****** ******
      ****** ****** ****** ****** ****** ****** ****** ****** ****** ******
      ****** ****** ****** ****** ****** ****** ****** ****** ****** ******
  16  ****** ****** ****** ****** ****** ****** ****** ****** ****** ******
      ****** ****** ****** ****** ****** ****** ****** ****** ****** ******
      ****** ****** ****** ****** ****** ****** ****** ****** ****** ******
  17  ****** ****** ****** ****** ****** ****** ****** ****** ****** ******
      ****** ****** ****** ****** ****** ****** ****** ****** ****** ******
      ****** ****** ****** ****** ****** ****** ****** ****** ****** ******
  18  ****** ****** ****** ****** ****** ****** ****** ****** ****** ******
      ****** ****** ****** ****** ****** ****** ****** ****** ****** ******
      ****** ****** ****** ****** ****** ****** ****** ****** ****** ******
  19  ****** ****** ****** ****** ****** ****** ****** ****** ****** ******
      ****** ****** ****** ****** ****** ****** ****** ****** ****** ******
      ****** ****** ****** ****** ****** ****** ****** ****** ****** ******
  20  ****** ****** ****** ****** ****** ****** ****** ****** ****** ******
      ****** ****** ****** ****** ****** ****** ****** ****** ****** ******
      ****** ****** ****** ****** ****** ****** ****** ****** ****** ******
  21  ****** ****** ****** ****** ****** ****** ****** ****** ****** ******
      ****** ****** ****** ****** ****** ****** ****** ****** ****** ******
      ****** ****** ****** ****** ****** ****** ****** ****** ****** ******
  22  ****** ****** ****** ****** ****** ****** ****** ****** ****** ******
      ****** ****** ****** ****** ****** ****** ****** ****** ****** ******
      ****** ****** ****** ****** ****** ****** ****** ****** ****** ******
  23  ****** ****** ****** ****** ****** ****** ****** ****** ****** ******
      ****** ****** ****** ****** ****** ****** ****** ****** ****** ******
      ****** ****** ****** ****** ****** ****** ****** ****** ****** ******
  24  ****** ****** ****** ****** ****** ****** ****** ****** ****** ******
      ****** ****** ****** ****** ****** ****** ****** ****** ****** ******
      ****** ****** ****** ****** ****** ****** ****** ****** ****** ******
  25  ****** ****** ****** ****** ****** ****** ****** ****** ****** ******
      ****** ****** ****** ****** ****** ****** ****** ****** ****** ******
      ****** ****** ****** ****** ****** ****** ****** ****** ****** ******

 HEAD WILL BE SAVED ON UNIT   51 AT END OF TIME STEP    1, STRESS PERIOD    7
1
  VOLUMETRIC BUDGET FOR ENTIRE MODEL AT END OF TIME STEP    1, STRESS PERIOD   7
  ------------------------------------------------------------------------------

     CUMULATIVE VOLUMES      L**3       RATES FOR THIS TIME STEP      L**3/T
     ------------------                 ------------------------

           IN:                                      IN:
           ---                                      ---
             STORAGE =    34974847.0229               STORAGE =       23815.8948
       CONSTANT HEAD =    17876593.3755         CONSTANT HEAD =       36749.1797
               WELLS =           0.0000                 WELLS =           0.0000
            RECHARGE =    15097200.0000              RECHARGE =           0.0000
      STREAM LEAKAGE =     3825233.9528        STREAM LEAKAGE =        7036.7192

            TOTAL IN =    71773874.3512              TOTAL IN =       67601.7937

          OUT:                                     OUT:
          ----                                     ----
             STORAGE =      687481.7137               STORAGE =           0.0000
       CONSTANT HEAD =           0.0000         CONSTANT HEAD =           0.0000
               WELLS =    15767444.4771                 WELLS =       24675.1870
            RECHARGE =           0.0000              RECHARGE =           0.0000
      STREAM LEAKAGE =    55318950.7964        STREAM LEAKAGE =       42926.6122

           TOTAL OUT =    71773876.9871             TOTAL OUT =       67601.7991

            IN - OUT =          -2.6359              IN - OUT =      -5.4838E-03

 PERCENT DISCREPANCY =          -0.00     PERCENT DISCREPANCY =          -0.00






         TIME SUMMARY AT END OF TIME STEP    1 IN STRESS PERIOD    7
                    SECONDS     MINUTES      HOURS       DAYS        YEARS
                    -----------------------------------------------------------
   TIME STEP LENGTH 7.86240E+06 1.31040E+05  2184.0      91.000     0.24914    
 STRESS PERIOD TIME 7.86240E+06 1.31040E+05  2184.0      91.000     0.24914    
         TOTAL TIME 5.52096E+07 9.20160E+05  15336.      639.00      1.7495    
1
1
                            STRESS PERIOD NO.    8, LENGTH =   91.00000    
                            -----------------------------------------------

                              NUMBER OF TIME STEPS =     1

                               MULTIPLIER FOR DELT =     1.500

                            INITIAL TIME STEP SIZE =   91.00000    

 WELL NO.  LAYER   ROW   COL   STRESS RATE         
 --------------------------------------------------
      1      1      6     26      -9457.    
      2      1     23      4      -2056.    
      3      1     12     10      -1573.    
      4      1      4      5     -0.1159E+05

      4 WELLS

                 RECHARGE =  1.000000E-03

 REUSING STREAM SEGMENT DATA FROM LAST STRESS PERIOD
 
 SOLVING FOR HEAD 


     6 CALLS TO PCG ROUTINE FOR TIME STEP   1 IN STRESS PERIOD    8
    22 TOTAL ITERATIONS

 OUTPUT CONTROL FOR STRESS PERIOD    8   TIME STEP    1
    SAVE BUDGET
    SAVE HEAD FOR ALL LAYERS
    PRINT HEAD FOR ALL LAYERS
 UBDSV2 SAVING "STREAMFLOW OUT  " ON UNIT  50 AT TIME STEP  1, STRESS PERIOD   8



 STREAM LISTING     PERIOD      8   STEP        1

 LAYER ROW COL. STREAM  RCH.  FLOW INTO     FLOW TO   FLOW OUT OF   OVRLND.     DIRECT     STREAM       STREAM     STREAM     STREAM   STREAMBED  STREAMBED
                SEG.NO.  NO.  STRM. RCH.    AQUIFER    STRM. RCH.    RUNOFF     PRECIP       ET          HEAD       DEPTH      WIDTH   CONDCTNC.   GRADIENT

   1   13    1     1     1    1.0000E+05 -5.0525E+02   1.0051E+05  0.000E+00  0.000E+00  0.000E+00  4.84062E+01  1.449E-01  2.000E+01  2.000E+04 -2.526E-02
   1   13    2     1     2    1.0051E+05 -1.3648E+03   1.0187E+05  0.000E+00  0.000E+00  0.000E+00  4.79298E+01  1.457E-01  2.000E+01  2.000E+04 -6.824E-02
   1   14    3     1     3    1.0187E+05 -3.3162E+02   1.0220E+05  0.000E+00  0.000E+00  0.000E+00  4.74532E+01  1.464E-01  2.000E+01  2.000E+04 -1.658E-02
   1   15    4     1     4    1.0220E+05 -3.2713E+02   1.0253E+05  0.000E+00  0.000E+00  0.000E+00  4.69762E+01  1.467E-01  2.000E+01  2.000E+04 -1.636E-02
   1   16    5     1     5    1.0253E+05 -1.2886E+03   1.0382E+05  0.000E+00  0.000E+00  0.000E+00  4.64997E+01  1.474E-01  2.000E+01  2.000E+04 -6.443E-02
   1   16    6     1     6    1.0382E+05 -8.4935E+02   1.0467E+05  0.000E+00  0.000E+00  0.000E+00  4.60233E+01  1.483E-01  2.000E+01  2.000E+04 -4.247E-02
   1   16    7     1     7    1.0467E+05 -8.5237E+02   1.0552E+05  0.000E+00  0.000E+00  0.000E+00  4.55468E+01  1.490E-01  2.000E+01  2.000E+04 -4.262E-02
   1   16    8     1     8    1.0552E+05 -8.6347E+02   1.0638E+05  0.000E+00  0.000E+00  0.000E+00  4.50702E+01  1.498E-01  2.000E+01  2.000E+04 -4.317E-02
   1   16    9     1     9    1.0638E+05 -8.7287E+02   1.0726E+05  0.000E+00  0.000E+00  0.000E+00  4.45937E+01  1.505E-01  2.000E+01  2.000E+04 -4.364E-02
   1   16   10     1    10    1.0726E+05 -8.9322E+02   1.0815E+05  0.000E+00  0.000E+00  0.000E+00  4.41171E+01  1.512E-01  2.000E+01  2.000E+04 -4.466E-02
   1   16   11     1    11    1.0815E+05 -9.5817E+02   1.0911E+05  0.000E+00  0.000E+00  0.000E+00  4.36407E+01  1.520E-01  2.000E+01  2.000E+04 -4.791E-02
   1   16   12     1    12    1.0911E+05 -1.6383E+03   1.1075E+05  0.000E+00  0.000E+00  0.000E+00  4.31645E+01  1.531E-01  2.000E+01  2.000E+04 -8.192E-02
   1   15   13     1    13    1.1075E+05 -1.3480E+03   1.1209E+05  0.000E+00  0.000E+00  0.000E+00  4.26884E+01  1.543E-01  2.000E+01  2.000E+04 -6.740E-02
   1   14   14     1    14    1.1209E+05 -1.4874E+03   1.1358E+05  0.000E+00  0.000E+00  0.000E+00  4.22123E+01  1.555E-01  2.000E+01  2.000E+04 -7.437E-02
   1   13   15     1    15    1.1358E+05 -1.6953E+03   1.1528E+05  0.000E+00  0.000E+00  0.000E+00  4.17364E+01  1.568E-01  2.000E+01  2.000E+04 -8.477E-02
   1   12   16     1    16    1.1528E+05 -2.1235E+03   1.1740E+05  0.000E+00  0.000E+00  0.000E+00  4.12607E+01  1.584E-01  2.000E+01  2.000E+04 -1.062E-01
   1   12   17     1    17    1.1740E+05 -1.5325E+03   1.1893E+05  0.000E+00  0.000E+00  0.000E+00  4.07849E+01  1.599E-01  2.000E+01  2.000E+04 -7.662E-02
   1   12   18     1    18    1.1893E+05 -1.4986E+03   1.2043E+05  0.000E+00  0.000E+00  0.000E+00  4.03088E+01  1.611E-01  2.000E+01  2.000E+04 -7.493E-02
   1   12   19     1    19    1.2043E+05 -1.9079E+03   1.2234E+05  0.000E+00  0.000E+00  0.000E+00  3.98329E+01  1.625E-01  2.000E+01  2.000E+04 -9.539E-02
   1   13   20     1    20    1.2234E+05 -1.6148E+03   1.2395E+05  0.000E+00  0.000E+00  0.000E+00  3.93571E+01  1.639E-01  2.000E+01  2.000E+04 -8.074E-02
   1   14   21     1    21    1.2395E+05 -1.6168E+03   1.2557E+05  0.000E+00  0.000E+00  0.000E+00  3.88811E+01  1.652E-01  2.000E+01  2.000E+04 -8.084E-02
   1   14   22     1    22    1.2557E+05  4.8980E+03   1.2067E+05  0.000E+00  0.000E+00  0.000E+00  3.84025E+01  1.639E-01  2.000E+01  2.000E+04  2.449E-01
   1    9   30     2     1    5.0000E+04  9.7790E+01   4.9902E+04  0.000E+00  0.000E+00  0.000E+00  4.02408E+01  1.158E-01  2.000E+01  2.000E+04  4.890E-03
   1    9   29     2     2    4.9902E+04 -1.1031E+02   5.0013E+04  0.000E+00  0.000E+00  0.000E+00  3.99908E+01  1.158E-01  2.000E+01  2.000E+04 -5.516E-03
   1    9   28     2     3    5.0013E+04 -1.5611E+02   5.0169E+04  0.000E+00  0.000E+00  0.000E+00  3.97410E+01  1.160E-01  2.000E+01  2.000E+04 -7.805E-03
   1    9   27     2     4    5.0169E+04 -4.8294E+02   5.0652E+04  0.000E+00  0.000E+00  0.000E+00  3.94914E+01  1.164E-01  2.000E+01  2.000E+04 -2.415E-02
   1   10   26     2     5    5.0652E+04 -5.8484E+02   5.1236E+04  0.000E+00  0.000E+00  0.000E+00  3.92422E+01  1.172E-01  2.000E+01  2.000E+04 -2.924E-02
   1   11   25     2     6    5.1236E+04 -8.2562E+02   5.2062E+04  0.000E+00  0.000E+00  0.000E+00  3.89931E+01  1.181E-01  2.000E+01  2.000E+04 -4.128E-02
   1   12   24     2     7    5.2062E+04 -1.0971E+03   5.3159E+04  0.000E+00  0.000E+00  0.000E+00  3.87445E+01  1.195E-01  2.000E+01  2.000E+04 -5.485E-02
   1   13   23     2     8    5.3159E+04 -2.1041E+02   5.3370E+04  0.000E+00  0.000E+00  0.000E+00  3.84953E+01  1.203E-01  2.000E+01  2.000E+04 -1.052E-02
   1   14   22     2     9    5.3370E+04  1.7339E+03   5.1636E+04  0.000E+00  0.000E+00  0.000E+00  3.82443E+01  1.193E-01  2.000E+01  2.000E+04  8.670E-02
   1   14   22     3     1    1.7231E+05 -8.6638E+03   1.8097E+05  0.000E+00  0.000E+00  0.000E+00  3.77244E+01  1.689E-01  2.000E+01  2.000E+04 -4.332E-01
   1   15   23     3     2    1.8097E+05 -5.5436E+02   1.8153E+05  0.000E+00  0.000E+00  0.000E+00  3.68382E+01  1.715E-01  2.000E+01  2.000E+04 -2.772E-02
   1   15   24     3     3    1.8153E+05 -2.8753E+02   1.8181E+05  0.000E+00  0.000E+00  0.000E+00  3.59495E+01  1.717E-01  2.000E+01  2.000E+04 -1.438E-02
   1   15   25     3     4    1.8181E+05 -2.7897E+02   1.8209E+05  0.000E+00  0.000E+00  0.000E+00  3.50608E+01  1.719E-01  2.000E+01  2.000E+04 -1.395E-02
   1   15   26     3     5    1.8209E+05 -3.3489E+02   1.8243E+05  0.000E+00  0.000E+00  0.000E+00  3.41721E+01  1.721E-01  2.000E+01  2.000E+04 -1.674E-02
   1   16   27     3     6    1.8243E+05 -3.6827E+02   1.8280E+05  0.000E+00  0.000E+00  0.000E+00  3.32834E+01  1.723E-01  2.000E+01  2.000E+04 -1.841E-02
   1   17   28     3     7    1.8280E+05 -1.5650E+03   1.8436E+05  0.000E+00  0.000E+00  0.000E+00  3.23950E+01  1.728E-01  2.000E+01  2.000E+04 -7.825E-02
   1   18   29     3     8    1.8436E+05 -2.9238E+03   1.8728E+05  0.000E+00  0.000E+00  0.000E+00  3.15074E+01  1.741E-01  2.000E+01  2.000E+04 -1.462E-01
   1   18   30     3     9    1.8728E+05 -3.1914E+03   1.9048E+05  0.000E+00  0.000E+00  0.000E+00  3.06202E+01  1.758E-01  2.000E+01  2.000E+04 -1.596E-01



1
              HEAD IN LAYER   1 AT END OF TIME STEP   1 IN STRESS PERIOD    8
  ---------------------------------------------------------------------------

          1      2      3      4      5      6      7      8      9     10
         11     12     13     14     15     16     17     18     19     20
         21     22     23     24     25     26     27     28     29     30
 .........................................................................
   1  ****** ****** ****** ****** ****** ****** ****** ****** ****** ******
      ****** ****** ****** ****** ****** ****** ****** ****** ****** ******
      ****** ****** ****** ****** ****** ****** ****** ****** ****** ******
   2  ****** ****** ****** ****** ****** ****** ****** ****** ****** ******
      ****** ****** ****** ****** ****** ****** ****** ****** ****** ******
      ****** ****** ****** ****** ****** ****** ****** ****** ****** ******
   3  ****** ****** ****** ****** ****** ****** ****** ****** ****** ******
      ****** ****** ****** ****** ****** ****** ****** ****** ****** ******
      ****** ****** ****** ****** ****** ****** ****** ****** ****** ******
   4  ****** ****** ****** ****** ****** ****** ****** ****** ****** ******
      ****** ****** ****** ****** ****** ****** ****** ****** ****** ******
      ****** ****** ****** ****** ****** ****** ****** ****** ****** ******
   5  ****** ****** ****** ****** ****** ****** ****** ****** ****** ******
      ****** ****** ****** ****** ****** ****** ****** ****** ****** ******
      ****** ****** ****** ****** ****** ****** ****** ****** ****** ******
   6  ****** ****** ****** ****** ****** ****** ****** ****** ****** ******
      ****** ****** ****** ****** ****** ****** ****** ****** ****** ******
      ****** ****** ****** ****** ****** ****** ****** ****** ****** ******
   7  ****** ****** ****** ****** ****** ****** ****** ****** ****** ******
      ****** ****** ****** ****** ****** ****** ****** ****** ****** ******
      ****** ****** ****** ****** ****** ****** ****** ****** ****** ******
   8  ****** ****** ****** ****** ****** ****** ****** ****** ****** ******
      ****** ****** ****** ****** ****** ****** ****** ****** ****** ******
      ****** ****** ****** ****** ****** ****** ****** ****** ****** ******
   9  ****** ****** ****** ****** ****** ****** ****** ****** ****** ******
      ****** ****** ****** ****** ****** ****** ****** ****** ****** ******
      ****** ****** ****** ****** ****** ****** ****** ****** ****** ******
  10  ****** ****** ****** ****** ****** ****** ****** ****** ****** ******
      ****** ****** ****** ****** ****** ****** ****** ****** ****** ******
      ****** ****** ****** ****** ****** ****** ****** ****** ****** ******
  11  ****** ****** ****** ****** ****** ****** ****** ****** ****** ******
      ****** ****** ****** ****** ****** ****** ****** ****** ****** ******
      ****** ****** ****** ****** ****** ****** ****** ****** ****** ******
  12  ****** ****** ****** ****** ****** ****** ****** ****** ****** ******
      ****** ****** ****** ****** ****** ****** ****** ****** ****** ******
      ****** ****** ****** ****** ****** ****** ****** ****** ****** ******
  13  ****** ****** ****** ****** ****** ****** ****** ****** ****** ******
      ****** ****** ****** ****** ****** ****** ****** ****** ****** ******
      ****** ****** ****** ****** ****** ****** ****** ****** ****** ******
  14  ****** ****** ****** ****** ****** ****** ****** ****** ****** ******
      ****** ****** ****** ****** ****** ****** ****** ****** ****** ******
      ****** ****** ****** ****** ****** ****** ****** ****** ****** ******
  15  ****** ****** ****** ****** ****** ****** ****** ****** ****** ******
      ****** ****** ****** ****** ****** ****** ****** ****** ****** ******
      ****** ****** ****** ****** ****** ****** ****** ****** ****** ******
  16  ****** ****** ****** ****** ****** ****** ****** ****** ****** ******
      ****** ****** ****** ****** ****** ****** ****** ****** ****** ******
      ****** ****** ****** ****** ****** ****** ****** ****** ****** ******
  17  ****** ****** ****** ****** ****** ****** ****** ****** ****** ******
      ****** ****** ****** ****** ****** ****** ****** ****** ****** ******
      ****** ****** ****** ****** ****** ****** ****** ****** ****** ******
  18  ****** ****** ****** ****** ****** ****** ****** ****** ****** ******
      ****** ****** ****** ****** ****** ****** ****** ****** ****** ******
      ****** ****** ****** ****** ****** ****** ****** ****** ****** ******
  19  ****** ****** ****** ****** ****** ****** ****** ****** ****** ******
      ****** ****** ****** ****** ****** ****** ****** ****** ****** ******
      ****** ****** ****** ****** ****** ****** ****** ****** ****** ******
  20  ****** ****** ****** ****** ****** ****** ****** ****** ****** ******
      ****** ****** ****** ****** ****** ****** ****** ****** ****** ******
      ****** ****** ****** ****** ****** ****** ****** ****** ****** ******
  21  ****** ****** ****** ****** ****** ****** ****** ****** ****** ******
      ****** ****** ****** ****** ****** ****** ****** ****** ****** ******
      ****** ****** ****** ****** ****** ****** ****** ****** ****** ******
  22  ****** ****** ****** ****** ****** ****** ****** ****** ****** ******
      ****** ****** ****** ****** ****** ****** ****** ****** ****** ******
      ****** ****** ****** ****** ****** ****** ****** ****** ****** ******
  23  ****** ****** ****** ****** ****** ****** ****** ****** ****** ******
      ****** ****** ****** ****** ****** ****** ****** ****** ****** ******
      ****** ****** ****** ****** ****** ****** ****** ****** ****** ******
  24  ****** ****** ****** ****** ****** ****** ****** ****** ****** ******
      ****** ****** ****** ****** ****** ****** ****** ****** ****** ******
      ****** ****** ****** ****** ****** ****** ****** ****** ****** ******
  25  ****** ****** ****** ****** ****** ****** ****** ****** ****** ******
      ****** ****** ****** ****** ****** ****** ****** ****** ****** ******
      ****** ****** ****** ****** ****** ****** ****** ****** ****** ******

 HEAD WILL BE SAVED ON UNIT   51 AT END OF TIME STEP    1, STRESS PERIOD    8
1
  VOLUMETRIC BUDGET FOR ENTIRE MODEL AT END OF TIME STEP    1, STRESS PERIOD   8
  ------------------------------------------------------------------------------

     CUMULATIVE VOLUMES      L**3       RATES FOR THIS TIME STEP      L**3/T
     ------------------                 ------------------------

           IN:                                      IN:
           ---                                      ---
             STORAGE =    35202129.3095               STORAGE =        2497.6075
       CONSTANT HEAD =    21204318.1890         CONSTANT HEAD =       36568.4045
               WELLS =           0.0000                 WELLS =           0.0000
            RECHARGE =    17608800.0000              RECHARGE =       27600.0000
      STREAM LEAKAGE =     4437636.5724        STREAM LEAKAGE =        6729.6991

            TOTAL IN =    78452884.0709              TOTAL IN =       73395.7112

          OUT:                                     OUT:
          ----                                     ----
             STORAGE =      825359.8389               STORAGE =        1515.1442
       CONSTANT HEAD =           0.0000         CONSTANT HEAD =           0.0000
               WELLS =    18012886.4918                 WELLS =       24675.1870
            RECHARGE =           0.0000              RECHARGE =           0.0000
      STREAM LEAKAGE =    59614639.7717        STREAM LEAKAGE =       47205.3734

           TOTAL OUT =    78452886.1024             TOTAL OUT =       73395.7046

            IN - OUT =          -2.0314              IN - OUT =       6.6425E-03

 PERCENT DISCREPANCY =          -0.00     PERCENT DISCREPANCY =           0.00






         TIME SUMMARY AT END OF TIME STEP    1 IN STRESS PERIOD    8
                    SECONDS     MINUTES      HOURS       DAYS        YEARS
                    -----------------------------------------------------------
   TIME STEP LENGTH 7.86240E+06 1.31040E+05  2184.0      91.000     0.24914    
 STRESS PERIOD TIME 7.86240E+06 1.31040E+05  2184.0      91.000     0.24914    
         TOTAL TIME 6.30720E+07 1.05120E+06  17520.      730.00      1.9986    
1
1
                            STRESS PERIOD NO.    9, LENGTH =   92.00000    
                            -----------------------------------------------

                              NUMBER OF TIME STEPS =     1

                               MULTIPLIER FOR DELT =     1.500

                            INITIAL TIME STEP SIZE =   92.00000    

 WELL NO.  LAYER   ROW   COL   STRESS RATE         
 --------------------------------------------------
      1      1      6     26      -9457.    
      2      1     23      4      -2056.    
      3      1     12     10      -1573.    
      4      1      4      5     -0.1159E+05

      4 WELLS

                 RECHARGE =  5.000000E-04

 REUSING STREAM SEGMENT DATA FROM LAST STRESS PERIOD
 
 SOLVING FOR HEAD 


     6 CALLS TO PCG ROUTINE FOR TIME STEP   1 IN STRESS PERIOD    9
    23 TOTAL ITERATIONS

 OUTPUT CONTROL FOR STRESS PERIOD    9   TIME STEP    1
    SAVE BUDGET
    SAVE HEAD FOR ALL LAYERS
    PRINT HEAD FOR ALL LAYERS
 UBDSV2 SAVING "STREAMFLOW OUT  " ON UNIT  50 AT TIME STEP  1, STRESS PERIOD   9



 STREAM LISTING     PERIOD      9   STEP        1

 LAYER ROW COL. STREAM  RCH.  FLOW INTO     FLOW TO   FLOW OUT OF   OVRLND.     DIRECT     STREAM       STREAM     STREAM     STREAM   STREAMBED  STREAMBED
                SEG.NO.  NO.  STRM. RCH.    AQUIFER    STRM. RCH.    RUNOFF     PRECIP       ET          HEAD       DEPTH      WIDTH   CONDCTNC.   GRADIENT

   1   13    1     1     1    1.0000E+05 -2.6281E+02   1.0026E+05  0.000E+00  0.000E+00  0.000E+00  4.84061E+01  1.448E-01  2.000E+01  2.000E+04 -1.314E-02
   1   13    2     1     2    1.0026E+05 -1.0889E+03   1.0135E+05  0.000E+00  0.000E+00  0.000E+00  4.79294E+01  1.454E-01  2.000E+01  2.000E+04 -5.444E-02
   1   14    3     1     3    1.0135E+05 -2.5575E+02   1.0161E+05  0.000E+00  0.000E+00  0.000E+00  4.74528E+01  1.459E-01  2.000E+01  2.000E+04 -1.279E-02
   1   15    4     1     4    1.0161E+05 -2.5127E+02   1.0186E+05  0.000E+00  0.000E+00  0.000E+00  4.69757E+01  1.462E-01  2.000E+01  2.000E+04 -1.256E-02
   1   16    5     1     5    1.0186E+05 -1.0935E+03   1.0295E+05  0.000E+00  0.000E+00  0.000E+00  4.64990E+01  1.467E-01  2.000E+01  2.000E+04 -5.468E-02
   1   16    6     1     6    1.0295E+05 -7.2593E+02   1.0368E+05  0.000E+00  0.000E+00  0.000E+00  4.60225E+01  1.475E-01  2.000E+01  2.000E+04 -3.630E-02
   1   16    7     1     7    1.0368E+05 -7.3238E+02   1.0441E+05  0.000E+00  0.000E+00  0.000E+00  4.55459E+01  1.481E-01  2.000E+01  2.000E+04 -3.662E-02
   1   16    8     1     8    1.0441E+05 -7.4518E+02   1.0516E+05  0.000E+00  0.000E+00  0.000E+00  4.50692E+01  1.488E-01  2.000E+01  2.000E+04 -3.726E-02
   1   16    9     1     9    1.0516E+05 -7.5675E+02   1.0591E+05  0.000E+00  0.000E+00  0.000E+00  4.45926E+01  1.494E-01  2.000E+01  2.000E+04 -3.784E-02
   1   16   10     1    10    1.0591E+05 -7.8002E+02   1.0669E+05  0.000E+00  0.000E+00  0.000E+00  4.41160E+01  1.501E-01  2.000E+01  2.000E+04 -3.900E-02
   1   16   11     1    11    1.0669E+05 -8.4708E+02   1.0754E+05  0.000E+00  0.000E+00  0.000E+00  4.36394E+01  1.507E-01  2.000E+01  2.000E+04 -4.235E-02
   1   16   12     1    12    1.0754E+05 -1.4473E+03   1.0899E+05  0.000E+00  0.000E+00  0.000E+00  4.31631E+01  1.517E-01  2.000E+01  2.000E+04 -7.237E-02
   1   15   13     1    13    1.0899E+05 -1.1298E+03   1.1012E+05  0.000E+00  0.000E+00  0.000E+00  4.26869E+01  1.528E-01  2.000E+01  2.000E+04 -5.649E-02
   1   14   14     1    14    1.1012E+05 -1.2518E+03   1.1137E+05  0.000E+00  0.000E+00  0.000E+00  4.22106E+01  1.538E-01  2.000E+01  2.000E+04 -6.259E-02
   1   13   15     1    15    1.1137E+05 -1.4506E+03   1.1282E+05  0.000E+00  0.000E+00  0.000E+00  4.17345E+01  1.549E-01  2.000E+01  2.000E+04 -7.253E-02
   1   12   16     1    16    1.1282E+05 -1.8649E+03   1.1468E+05  0.000E+00  0.000E+00  0.000E+00  4.12586E+01  1.563E-01  2.000E+01  2.000E+04 -9.325E-02
   1   12   17     1    17    1.1468E+05 -1.3594E+03   1.1604E+05  0.000E+00  0.000E+00  0.000E+00  4.07826E+01  1.576E-01  2.000E+01  2.000E+04 -6.797E-02
   1   12   18     1    18    1.1604E+05 -1.3351E+03   1.1738E+05  0.000E+00  0.000E+00  0.000E+00  4.03064E+01  1.587E-01  2.000E+01  2.000E+04 -6.676E-02
   1   12   19     1    19    1.1738E+05 -1.7114E+03   1.1909E+05  0.000E+00  0.000E+00  0.000E+00  3.98304E+01  1.599E-01  2.000E+01  2.000E+04 -8.557E-02
   1   13   20     1    20    1.1909E+05 -1.4380E+03   1.2053E+05  0.000E+00  0.000E+00  0.000E+00  3.93544E+01  1.612E-01  2.000E+01  2.000E+04 -7.190E-02
   1   14   21     1    21    1.2053E+05 -1.4455E+03   1.2197E+05  0.000E+00  0.000E+00  0.000E+00  3.88783E+01  1.624E-01  2.000E+01  2.000E+04 -7.227E-02
   1   14   22     1    22    1.2197E+05  4.9360E+03   1.1704E+05  0.000E+00  0.000E+00  0.000E+00  3.83996E+01  1.610E-01  2.000E+01  2.000E+04  2.468E-01
   1    9   30     2     1    5.0000E+04  2.2297E+02   4.9777E+04  0.000E+00  0.000E+00  0.000E+00  4.02407E+01  1.157E-01  2.000E+01  2.000E+04  1.115E-02
   1    9   29     2     2    4.9777E+04  1.5259E+01   4.9762E+04  0.000E+00  0.000E+00  0.000E+00  3.99905E+01  1.155E-01  2.000E+01  2.000E+04  7.629E-04
   1    9   28     2     3    4.9762E+04 -2.8183E+01   4.9790E+04  0.000E+00  0.000E+00  0.000E+00  3.97406E+01  1.156E-01  2.000E+01  2.000E+04 -1.409E-03
   1    9   27     2     4    4.9790E+04 -3.0098E+02   5.0091E+04  0.000E+00  0.000E+00  0.000E+00  3.94908E+01  1.158E-01  2.000E+01  2.000E+04 -1.505E-02
   1   10   26     2     5    5.0091E+04 -4.0646E+02   5.0497E+04  0.000E+00  0.000E+00  0.000E+00  3.92413E+01  1.163E-01  2.000E+01  2.000E+04 -2.032E-02
   1   11   25     2     6    5.0497E+04 -6.5486E+02   5.1152E+04  0.000E+00  0.000E+00  0.000E+00  3.89920E+01  1.170E-01  2.000E+01  2.000E+04 -3.274E-02
   1   12   24     2     7    5.1152E+04 -9.3964E+02   5.2092E+04  0.000E+00  0.000E+00  0.000E+00  3.87431E+01  1.181E-01  2.000E+01  2.000E+04 -4.698E-02
   1   13   23     2     8    5.2092E+04 -1.6257E+02   5.2254E+04  0.000E+00  0.000E+00  0.000E+00  3.84939E+01  1.189E-01  2.000E+01  2.000E+04 -8.128E-03
   1   14   22     2     9    5.2254E+04  1.7985E+03   5.0456E+04  0.000E+00  0.000E+00  0.000E+00  3.82427E+01  1.177E-01  2.000E+01  2.000E+04  8.993E-02
   1   14   22     3     1    1.6749E+05 -8.6235E+03   1.7612E+05  0.000E+00  0.000E+00  0.000E+00  3.77216E+01  1.661E-01  2.000E+01  2.000E+04 -4.312E-01
   1   15   23     3     2    1.7612E+05 -5.0220E+02   1.7662E+05  0.000E+00  0.000E+00  0.000E+00  3.68354E+01  1.687E-01  2.000E+01  2.000E+04 -2.511E-02
   1   15   24     3     3    1.7662E+05 -2.4477E+02   1.7686E+05  0.000E+00  0.000E+00  0.000E+00  3.59467E+01  1.689E-01  2.000E+01  2.000E+04 -1.224E-02
   1   15   25     3     4    1.7686E+05 -2.3593E+02   1.7710E+05  0.000E+00  0.000E+00  0.000E+00  3.50580E+01  1.691E-01  2.000E+01  2.000E+04 -1.180E-02
   1   15   26     3     5    1.7710E+05 -2.8745E+02   1.7739E+05  0.000E+00  0.000E+00  0.000E+00  3.41692E+01  1.692E-01  2.000E+01  2.000E+04 -1.437E-02
   1   16   27     3     6    1.7739E+05 -3.1255E+02   1.7770E+05  0.000E+00  0.000E+00  0.000E+00  3.32805E+01  1.694E-01  2.000E+01  2.000E+04 -1.563E-02
   1   17   28     3     7    1.7770E+05 -1.4125E+03   1.7911E+05  0.000E+00  0.000E+00  0.000E+00  3.23921E+01  1.699E-01  2.000E+01  2.000E+04 -7.062E-02
   1   18   29     3     8    1.7911E+05 -2.7499E+03   1.8186E+05  0.000E+00  0.000E+00  0.000E+00  3.15044E+01  1.711E-01  2.000E+01  2.000E+04 -1.375E-01
   1   18   30     3     9    1.8186E+05 -3.0605E+03   1.8492E+05  0.000E+00  0.000E+00  0.000E+00  3.06172E+01  1.727E-01  2.000E+01  2.000E+04 -1.530E-01



1
              HEAD IN LAYER   1 AT END OF TIME STEP   1 IN STRESS PERIOD    9
  ---------------------------------------------------------------------------

          1      2      3      4      5      6      7      8      9     10
         11     12     13     14     15     16     17     18     19     20
         21     22     23     24     25     26     27     28     29     30
 .........................................................................
   1  ****** ****** ****** ****** ****** ****** ****** ****** ****** ******
      ****** ****** ****** ****** ****** ****** ****** ****** ****** ******
      ****** ****** ****** ****** ****** ****** ****** ****** ****** ******
   2  ****** ****** ****** ****** ****** ****** ****** ****** ****** ******
      ****** ****** ****** ****** ****** ****** ****** ****** ****** ******
      ****** ****** ****** ****** ****** ****** ****** ****** ****** ******
   3  ****** ****** ****** ****** ****** ****** ****** ****** ****** ******
      ****** ****** ****** ****** ****** ****** ****** ****** ****** ******
      ****** ****** ****** ****** ****** ****** ****** ****** ****** ******
   4  ****** ****** ****** ****** ****** ****** ****** ****** ****** ******
      ****** ****** ****** ****** ****** ****** ****** ****** ****** ******
      ****** ****** ****** ****** ****** ****** ****** ****** ****** ******
   5  ****** ****** ****** ****** ****** ****** ****** ****** ****** ******
      ****** ****** ****** ****** ****** ****** ****** ****** ****** ******
      ****** ****** ****** ****** ****** ****** ****** ****** ****** ******
   6  ****** ****** ****** ****** ****** ****** ****** ****** ****** ******
      ****** ****** ****** ****** ****** ****** ****** ****** ****** ******
      ****** ****** ****** ****** ****** ****** ****** ****** ****** ******
   7  ****** ****** ****** ****** ****** ****** ****** ****** ****** ******
      ****** ****** ****** ****** ****** ****** ****** ****** ****** ******
      ****** ****** ****** ****** ****** ****** ****** ****** ****** ******
   8  ****** ****** ****** ****** ****** ****** ****** ****** ****** ******
      ****** ****** ****** ****** ****** ****** ****** ****** ****** ******
      ****** ****** ****** ****** ****** ****** ****** ****** ****** ******
   9  ****** ****** ****** ****** ****** ****** ****** ****** ****** ******
      ****** ****** ****** ****** ****** ****** ****** ****** ****** ******
      ****** ****** ****** ****** ****** ****** ****** ****** ****** ******
  10  ****** ****** ****** ****** ****** ****** ****** ****** ****** ******
      ****** ****** ****** ****** ****** ****** ****** ****** ****** ******
      ****** ****** ****** ****** ****** ****** ****** ****** ****** ******
  11  ****** ****** ****** ****** ****** ****** ****** ****** ****** ******
      ****** ****** ****** ****** ****** ****** ****** ****** ****** ******
      ****** ****** ****** ****** ****** ****** ****** ****** ****** ******
  12  ****** ****** ****** ****** ****** ****** ****** ****** ****** ******
      ****** ****** ****** ****** ****** ****** ****** ****** ****** ******
      ****** ****** ****** ****** ****** ****** ****** ****** ****** ******
  13  ****** ****** ****** ****** ****** ****** ****** ****** ****** ******
      ****** ****** ****** ****** ****** ****** ****** ****** ****** ******
      ****** ****** ****** ****** ****** ****** ****** ****** ****** ******
  14  ****** ****** ****** ****** ****** ****** ****** ****** ****** ******
      ****** ****** ****** ****** ****** ****** ****** ****** ****** ******
      ****** ****** ****** ****** ****** ****** ****** ****** ****** ******
  15  ****** ****** ****** ****** ****** ****** ****** ****** ****** ******
      ****** ****** ****** ****** ****** ****** ****** ****** ****** ******
      ****** ****** ****** ****** ****** ****** ****** ****** ****** ******
  16  ****** ****** ****** ****** ****** ****** ****** ****** ****** ******
      ****** ****** ****** ****** ****** ****** ****** ****** ****** ******
      ****** ****** ****** ****** ****** ****** ****** ****** ****** ******
  17  ****** ****** ****** ****** ****** ****** ****** ****** ****** ******
      ****** ****** ****** ****** ****** ****** ****** ****** ****** ******
      ****** ****** ****** ****** ****** ****** ****** ****** ****** ******
  18  ****** ****** ****** ****** ****** ****** ****** ****** ****** ******
      ****** ****** ****** ****** ****** ****** ****** ****** ****** ******
      ****** ****** ****** ****** ****** ****** ****** ****** ****** ******
  19  ****** ****** ****** ****** ****** ****** ****** ****** ****** ******
      ****** ****** ****** ****** ****** ****** ****** ****** ****** ******
      ****** ****** ****** ****** ****** ****** ****** ****** ****** ******
  20  ****** ****** ****** ****** ****** ****** ****** ****** ****** ******
      ****** ****** ****** ****** ****** ****** ****** ****** ****** ******
      ****** ****** ****** ****** ****** ****** ****** ****** ****** ******
  21  ****** ****** ****** ****** ****** ****** ****** ****** ****** ******
      ****** ****** ****** ****** ****** ****** ****** ****** ****** ******
      ****** ****** ****** ****** ****** ****** ****** ****** ****** ******
  22  ****** ****** ****** ****** ****** ****** ****** ****** ****** ******
      ****** ****** ****** ****** ****** ****** ****** ****** ****** ******
      ****** ****** ****** ****** ****** ****** ****** ****** ****** ******
  23  ****** ****** ****** ****** ****** ****** ****** ****** ****** ******
      ****** ****** ****** ****** ****** ****** ****** ****** ****** ******
      ****** ****** ****** ****** ****** ****** ****** ****** ****** ******
  24  ****** ****** ****** ****** ****** ****** ****** ****** ****** ******
      ****** ****** ****** ****** ****** ****** ****** ****** ****** ******
      ****** ****** ****** ****** ****** ****** ****** ****** ****** ******
  25  ****** ****** ****** ****** ****** ****** ****** ****** ****** ******
      ****** ****** ****** ****** ****** ****** ****** ****** ****** ******
      ****** ****** ****** ****** ****** ****** ****** ****** ****** ******

 HEAD WILL BE SAVED ON UNIT   51 AT END OF TIME STEP    1, STRESS PERIOD    9
1
  VOLUMETRIC BUDGET FOR ENTIRE MODEL AT END OF TIME STEP    1, STRESS PERIOD   9
  ------------------------------------------------------------------------------

     CUMULATIVE VOLUMES      L**3       RATES FOR THIS TIME STEP      L**3/T
     ------------------                 ------------------------

           IN:                                      IN:
           ---                                      ---
             STORAGE =    35936214.0183               STORAGE =        7979.1816
       CONSTANT HEAD =    24683632.0471         CONSTANT HEAD =       37818.6289
               WELLS =           0.0000                 WELLS =           0.0000
            RECHARGE =    18878400.0000              RECHARGE =       13800.0000
      STREAM LEAKAGE =     5079128.6796        STREAM LEAKAGE =        6972.7403

            TOTAL IN =    84577374.7450              TOTAL IN =       66570.5508

          OUT:                                     OUT:
          ----                                     ----
             STORAGE =      825359.8389               STORAGE =           0.0000
       CONSTANT HEAD =           0.0000         CONSTANT HEAD =           0.0000
               WELLS =    20283003.6935                 WELLS =       24675.1870
            RECHARGE =           0.0000              RECHARGE =           0.0000
      STREAM LEAKAGE =    63469013.3216        STREAM LEAKAGE =       41895.3647

           TOTAL OUT =    84577376.8540             TOTAL OUT =       66570.5516

            IN - OUT =          -2.1089              IN - OUT =      -8.4246E-04

 PERCENT DISCREPANCY =          -0.00     PERCENT DISCREPANCY =          -0.00






         TIME SUMMARY AT END OF TIME STEP    1 IN STRESS PERIOD    9
                    SECONDS     MINUTES      HOURS       DAYS        YEARS
                    -----------------------------------------------------------
   TIME STEP LENGTH 7.94880E+06 1.32480E+05  2208.0      92.000     0.25188    
 STRESS PERIOD TIME 7.94880E+06 1.32480E+05  2208.0      92.000     0.25188    
         TOTAL TIME 7.10208E+07 1.18368E+06  19728.      822.00      2.2505    
1
1
                            STRESS PERIOD NO.   10, LENGTH =   91.00000    
                            -----------------------------------------------

                              NUMBER OF TIME STEPS =     1

                               MULTIPLIER FOR DELT =     1.500

                            INITIAL TIME STEP SIZE =   91.00000    

 WELL NO.  LAYER   ROW   COL   STRESS RATE         
 --------------------------------------------------
      1      1      6     26      -9457.    
      2      1     23      4      -2056.    
      3      1     12     10      -1573.    
      4      1      4      5     -0.1159E+05

      4 WELLS

                 RECHARGE =  2.000000E-03

 REUSING STREAM SEGMENT DATA FROM LAST STRESS PERIOD
 
 SOLVING FOR HEAD 


     7 CALLS TO PCG ROUTINE FOR TIME STEP   1 IN STRESS PERIOD   10
    26 TOTAL ITERATIONS

 OUTPUT CONTROL FOR STRESS PERIOD   10   TIME STEP    1
    SAVE BUDGET
    SAVE HEAD FOR ALL LAYERS
    PRINT HEAD FOR ALL LAYERS
 UBDSV2 SAVING "STREAMFLOW OUT  " ON UNIT  50 AT TIME STEP  1, STRESS PERIOD  10



 STREAM LISTING     PERIOD     10   STEP        1

 LAYER ROW COL. STREAM  RCH.  FLOW INTO     FLOW TO   FLOW OUT OF   OVRLND.     DIRECT     STREAM       STREAM     STREAM     STREAM   STREAMBED  STREAMBED
                SEG.NO.  NO.  STRM. RCH.    AQUIFER    STRM. RCH.    RUNOFF     PRECIP       ET          HEAD       DEPTH      WIDTH   CONDCTNC.   GRADIENT

   1   13    1     1     1    1.0000E+05 -6.9535E+02   1.0070E+05  0.000E+00  0.000E+00  0.000E+00  4.84063E+01  1.450E-01  2.000E+01  2.000E+04 -3.477E-02
   1   13    2     1     2    1.0070E+05 -1.5667E+03   1.0226E+05  0.000E+00  0.000E+00  0.000E+00  4.79300E+01  1.459E-01  2.000E+01  2.000E+04 -7.834E-02
   1   14    3     1     3    1.0226E+05 -4.3861E+02   1.0270E+05  0.000E+00  0.000E+00  0.000E+00  4.74536E+01  1.468E-01  2.000E+01  2.000E+04 -2.193E-02
   1   15    4     1     4    1.0270E+05 -4.4775E+02   1.0315E+05  0.000E+00  0.000E+00  0.000E+00  4.69767E+01  1.472E-01  2.000E+01  2.000E+04 -2.239E-02
   1   16    5     1     5    1.0315E+05 -1.7106E+03   1.0486E+05  0.000E+00  0.000E+00  0.000E+00  4.65004E+01  1.481E-01  2.000E+01  2.000E+04 -8.553E-02
   1   16    6     1     6    1.0486E+05 -1.0856E+03   1.0594E+05  0.000E+00  0.000E+00  0.000E+00  4.60243E+01  1.493E-01  2.000E+01  2.000E+04 -5.428E-02
   1   16    7     1     7    1.0594E+05 -1.0740E+03   1.0702E+05  0.000E+00  0.000E+00  0.000E+00  4.55479E+01  1.502E-01  2.000E+01  2.000E+04 -5.370E-02
   1   16    8     1     8    1.0702E+05 -1.0815E+03   1.0810E+05  0.000E+00  0.000E+00  0.000E+00  4.50716E+01  1.511E-01  2.000E+01  2.000E+04 -5.408E-02
   1   16    9     1     9    1.0810E+05 -1.0919E+03   1.0919E+05  0.000E+00  0.000E+00  0.000E+00  4.45952E+01  1.520E-01  2.000E+01  2.000E+04 -5.460E-02
   1   16   10     1    10    1.0919E+05 -1.1160E+03   1.1031E+05  0.000E+00  0.000E+00  0.000E+00  4.41189E+01  1.530E-01  2.000E+01  2.000E+04 -5.580E-02
   1   16   11     1    11    1.1031E+05 -1.1873E+03   1.1150E+05  0.000E+00  0.000E+00  0.000E+00  4.36426E+01  1.539E-01  2.000E+01  2.000E+04 -5.937E-02
   1   16   12     1    12    1.1150E+05 -2.0146E+03   1.1351E+05  0.000E+00  0.000E+00  0.000E+00  4.31666E+01  1.552E-01  2.000E+01  2.000E+04 -1.007E-01
   1   15   13     1    13    1.1351E+05 -1.7099E+03   1.1522E+05  0.000E+00  0.000E+00  0.000E+00  4.26909E+01  1.568E-01  2.000E+01  2.000E+04 -8.550E-02
   1   14   14     1    14    1.1522E+05 -1.8362E+03   1.1706E+05  0.000E+00  0.000E+00  0.000E+00  4.22151E+01  1.582E-01  2.000E+01  2.000E+04 -9.181E-02
   1   13   15     1    15    1.1706E+05 -2.0228E+03   1.1908E+05  0.000E+00  0.000E+00  0.000E+00  4.17394E+01  1.598E-01  2.000E+01  2.000E+04 -1.011E-01
   1   12   16     1    16    1.1908E+05 -2.4117E+03   1.2149E+05  0.000E+00  0.000E+00  0.000E+00  4.12639E+01  1.616E-01  2.000E+01  2.000E+04 -1.206E-01
   1   12   17     1    17    1.2149E+05 -1.7777E+03   1.2327E+05  0.000E+00  0.000E+00  0.000E+00  4.07883E+01  1.633E-01  2.000E+01  2.000E+04 -8.889E-02
   1   12   18     1    18    1.2327E+05 -1.7507E+03   1.2502E+05  0.000E+00  0.000E+00  0.000E+00  4.03124E+01  1.647E-01  2.000E+01  2.000E+04 -8.753E-02
   1   12   19     1    19    1.2502E+05 -2.2232E+03   1.2724E+05  0.000E+00  0.000E+00  0.000E+00  3.98367E+01  1.663E-01  2.000E+01  2.000E+04 -1.112E-01
   1   13   20     1    20    1.2724E+05 -1.9570E+03   1.2920E+05  0.000E+00  0.000E+00  0.000E+00  3.93611E+01  1.679E-01  2.000E+01  2.000E+04 -9.785E-02
   1   14   21     1    21    1.2920E+05 -1.9705E+03   1.3117E+05  0.000E+00  0.000E+00  0.000E+00  3.88854E+01  1.695E-01  2.000E+01  2.000E+04 -9.852E-02
   1   14   22     1    22    1.3117E+05  4.8073E+03   1.2636E+05  0.000E+00  0.000E+00  0.000E+00  3.84070E+01  1.683E-01  2.000E+01  2.000E+04  2.404E-01
   1    9   30     2     1    5.0000E+04 -1.8999E+02   5.0190E+04  0.000E+00  0.000E+00  0.000E+00  4.02410E+01  1.160E-01  2.000E+01  2.000E+04 -9.499E-03
   1    9   29     2     2    5.0190E+04 -3.9529E+02   5.0585E+04  0.000E+00  0.000E+00  0.000E+00  3.99914E+01  1.164E-01  2.000E+01  2.000E+04 -1.976E-02
   1    9   28     2     3    5.0585E+04 -4.3760E+02   5.1023E+04  0.000E+00  0.000E+00  0.000E+00  3.97420E+01  1.170E-01  2.000E+01  2.000E+04 -2.188E-02
   1    9   27     2     4    5.1023E+04 -8.5012E+02   5.1873E+04  0.000E+00  0.000E+00  0.000E+00  3.94929E+01  1.179E-01  2.000E+01  2.000E+04 -4.251E-02
   1   10   26     2     5    5.1873E+04 -9.5606E+02   5.2829E+04  0.000E+00  0.000E+00  0.000E+00  3.92441E+01  1.191E-01  2.000E+01  2.000E+04 -4.780E-02
   1   11   25     2     6    5.2829E+04 -1.1800E+03   5.4009E+04  0.000E+00  0.000E+00  0.000E+00  3.89956E+01  1.206E-01  2.000E+01  2.000E+04 -5.900E-02
   1   12   24     2     7    5.4009E+04 -1.4146E+03   5.5424E+04  0.000E+00  0.000E+00  0.000E+00  3.87473E+01  1.223E-01  2.000E+01  2.000E+04 -7.073E-02
   1   13   23     2     8    5.5424E+04 -3.1073E+02   5.5734E+04  0.000E+00  0.000E+00  0.000E+00  3.84985E+01  1.235E-01  2.000E+01  2.000E+04 -1.554E-02
   1   14   22     2     9    5.5734E+04  1.6193E+03   5.4115E+04  0.000E+00  0.000E+00  0.000E+00  3.82476E+01  1.226E-01  2.000E+01  2.000E+04  8.097E-02
   1   14   22     3     1    1.8048E+05 -8.7505E+03   1.8923E+05  0.000E+00  0.000E+00  0.000E+00  3.77291E+01  1.735E-01  2.000E+01  2.000E+04 -4.375E-01
   1   15   23     3     2    1.8923E+05 -6.6496E+02   1.8989E+05  0.000E+00  0.000E+00  0.000E+00  3.68428E+01  1.762E-01  2.000E+01  2.000E+04 -3.325E-02
   1   15   24     3     3    1.8989E+05 -3.8209E+02   1.9028E+05  0.000E+00  0.000E+00  0.000E+00  3.59542E+01  1.765E-01  2.000E+01  2.000E+04 -1.910E-02
   1   15   25     3     4    1.9028E+05 -3.7665E+02   1.9065E+05  0.000E+00  0.000E+00  0.000E+00  3.50656E+01  1.767E-01  2.000E+01  2.000E+04 -1.883E-02
   1   15   26     3     5    1.9065E+05 -4.4978E+02   1.9110E+05  0.000E+00  0.000E+00  0.000E+00  3.41769E+01  1.769E-01  2.000E+01  2.000E+04 -2.249E-02
   1   16   27     3     6    1.9110E+05 -4.9857E+02   1.9160E+05  0.000E+00  0.000E+00  0.000E+00  3.32883E+01  1.772E-01  2.000E+01  2.000E+04 -2.493E-02
   1   17   28     3     7    1.9160E+05 -1.9337E+03   1.9353E+05  0.000E+00  0.000E+00  0.000E+00  3.24001E+01  1.778E-01  2.000E+01  2.000E+04 -9.668E-02
   1   18   29     3     8    1.9353E+05 -3.3024E+03   1.9684E+05  0.000E+00  0.000E+00  0.000E+00  3.15126E+01  1.793E-01  2.000E+01  2.000E+04 -1.651E-01
   1   18   30     3     9    1.9684E+05 -3.4866E+03   2.0032E+05  0.000E+00  0.000E+00  0.000E+00  3.06256E+01  1.812E-01  2.000E+01  2.000E+04 -1.743E-01



1
              HEAD IN LAYER   1 AT END OF TIME STEP   1 IN STRESS PERIOD   10
  ---------------------------------------------------------------------------

          1      2      3      4      5      6      7      8      9     10
         11     12     13     14     15     16     17     18     19     20
         21     22     23     24     25     26     27     28     29     30
 .........................................................................
   1  ****** ****** ****** ****** ****** ****** ****** ****** ****** ******
      ****** ****** ****** ****** ****** ****** ****** ****** ****** ******
      ****** ****** ****** ****** ****** ****** ****** ****** ****** ******
   2  ****** ****** ****** ****** ****** ****** ****** ****** ****** ******
      ****** ****** ****** ****** ****** ****** ****** ****** ****** ******
      ****** ****** ****** ****** ****** ****** ****** ****** ****** ******
   3  ****** ****** ****** ****** ****** ****** ****** ****** ****** ******
      ****** ****** ****** ****** ****** ****** ****** ****** ****** ******
      ****** ****** ****** ****** ****** ****** ****** ****** ****** ******
   4  ****** ****** ****** ****** ****** ****** ****** ****** ****** ******
      ****** ****** ****** ****** ****** ****** ****** ****** ****** ******
      ****** ****** ****** ****** ****** ****** ****** ****** ****** ******
   5  ****** ****** ****** ****** ****** ****** ****** ****** ****** ******
      ****** ****** ****** ****** ****** ****** ****** ****** ****** ******
      ****** ****** ****** ****** ****** ****** ****** ****** ****** ******
   6  ****** ****** ****** ****** ****** ****** ****** ****** ****** ******
      ****** ****** ****** ****** ****** ****** ****** ****** ****** ******
      ****** ****** ****** ****** ****** ****** ****** ****** ****** ******
   7  ****** ****** ****** ****** ****** ****** ****** ****** ****** ******
      ****** ****** ****** ****** ****** ****** ****** ****** ****** ******
      ****** ****** ****** ****** ****** ****** ****** ****** ****** ******
   8  ****** ****** ****** ****** ****** ****** ****** ****** ****** ******
      ****** ****** ****** ****** ****** ****** ****** ****** ****** ******
      ****** ****** ****** ****** ****** ****** ****** ****** ****** ******
   9  ****** ****** ****** ****** ****** ****** ****** ****** ****** ******
      ****** ****** ****** ****** ****** ****** ****** ****** ****** ******
      ****** ****** ****** ****** ****** ****** ****** ****** ****** ******
  10  ****** ****** ****** ****** ****** ****** ****** ****** ****** ******
      ****** ****** ****** ****** ****** ****** ****** ****** ****** ******
      ****** ****** ****** ****** ****** ****** ****** ****** ****** ******
  11  ****** ****** ****** ****** ****** ****** ****** ****** ****** ******
      ****** ****** ****** ****** ****** ****** ****** ****** ****** ******
      ****** ****** ****** ****** ****** ****** ****** ****** ****** ******
  12  ****** ****** ****** ****** ****** ****** ****** ****** ****** ******
      ****** ****** ****** ****** ****** ****** ****** ****** ****** ******
      ****** ****** ****** ****** ****** ****** ****** ****** ****** ******
  13  ****** ****** ****** ****** ****** ****** ****** ****** ****** ******
      ****** ****** ****** ****** ****** ****** ****** ****** ****** ******
      ****** ****** ****** ****** ****** ****** ****** ****** ****** ******
  14  ****** ****** ****** ****** ****** ****** ****** ****** ****** ******
      ****** ****** ****** ****** ****** ****** ****** ****** ****** ******
      ****** ****** ****** ****** ****** ****** ****** ****** ****** ******
  15  ****** ****** ****** ****** ****** ****** ****** ****** ****** ******
      ****** ****** ****** ****** ****** ****** ****** ****** ****** ******
      ****** ****** ****** ****** ****** ****** ****** ****** ****** ******
  16  ****** ****** ****** ****** ****** ****** ****** ****** ****** ******
      ****** ****** ****** ****** ****** ****** ****** ****** ****** ******
      ****** ****** ****** ****** ****** ****** ****** ****** ****** ******
  17  ****** ****** ****** ****** ****** ****** ****** ****** ****** ******
      ****** ****** ****** ****** ****** ****** ****** ****** ****** ******
      ****** ****** ****** ****** ****** ****** ****** ****** ****** ******
  18  ****** ****** ****** ****** ****** ****** ****** ****** ****** ******
      ****** ****** ****** ****** ****** ****** ****** ****** ****** ******
      ****** ****** ****** ****** ****** ****** ****** ****** ****** ******
  19  ****** ****** ****** ****** ****** ****** ****** ****** ****** ******
      ****** ****** ****** ****** ****** ****** ****** ****** ****** ******
      ****** ****** ****** ****** ****** ****** ****** ****** ****** ******
  20  ****** ****** ****** ****** ****** ****** ****** ****** ****** ******
      ****** ****** ****** ****** ****** ****** ****** ****** ****** ******
      ****** ****** ****** ****** ****** ****** ****** ****** ****** ******
  21  ****** ****** ****** ****** ****** ****** ****** ****** ****** ******
      ****** ****** ****** ****** ****** ****** ****** ****** ****** ******
      ****** ****** ****** ****** ****** ****** ****** ****** ****** ******
  22  ****** ****** ****** ****** ****** ****** ****** ****** ****** ******
      ****** ****** ****** ****** ****** ****** ****** ****** ****** ******
      ****** ****** ****** ****** ****** ****** ****** ****** ****** ******
  23  ****** ****** ****** ****** ****** ****** ****** ****** ****** ******
      ****** ****** ****** ****** ****** ****** ****** ****** ****** ******
      ****** ****** ****** ****** ****** ****** ****** ****** ****** ******
  24  ****** ****** ****** ****** ****** ****** ****** ****** ****** ******
      ****** ****** ****** ****** ****** ****** ****** ****** ****** ******
      ****** ****** ****** ****** ****** ****** ****** ****** ****** ******
  25  ****** ****** ****** ****** ****** ****** ****** ****** ****** ******
      ****** ****** ****** ****** ****** ****** ****** ****** ****** ******
      ****** ****** ****** ****** ****** ****** ****** ****** ****** ******

 HEAD WILL BE SAVED ON UNIT   51 AT END OF TIME STEP    1, STRESS PERIOD   10
1
  VOLUMETRIC BUDGET FOR ENTIRE MODEL AT END OF TIME STEP    1, STRESS PERIOD  10
  ------------------------------------------------------------------------------

     CUMULATIVE VOLUMES      L**3       RATES FOR THIS TIME STEP      L**3/T
     ------------------                 ------------------------

           IN:                                      IN:
           ---                                      ---
             STORAGE =    35936214.0183               STORAGE =           0.0000
       CONSTANT HEAD =    27861866.7562         CONSTANT HEAD =       34925.6561
               WELLS =           0.0000                 WELLS =           0.0000
            RECHARGE =    23901600.0000              RECHARGE =       55200.0000
      STREAM LEAKAGE =     5663951.9893        STREAM LEAKAGE =        6426.6298

            TOTAL IN =    93363632.7638              TOTAL IN =       96552.2859

          OUT:                                     OUT:
          ----                                     ----
             STORAGE =     2201975.5695               STORAGE =       15127.6454
       CONSTANT HEAD =           0.0000         CONSTANT HEAD =           0.0000
               WELLS =    22528445.7082                 WELLS =       24675.1870
            RECHARGE =           0.0000              RECHARGE =           0.0000
      STREAM LEAKAGE =    68633213.2605        STREAM LEAKAGE =       56749.4499

           TOTAL OUT =    93363634.5383             TOTAL OUT =       96552.2822

            IN - OUT =          -1.7745              IN - OUT =       3.6753E-03

 PERCENT DISCREPANCY =          -0.00     PERCENT DISCREPANCY =           0.00






         TIME SUMMARY AT END OF TIME STEP    1 IN STRESS PERIOD   10
                    SECONDS     MINUTES      HOURS       DAYS        YEARS
                    -----------------------------------------------------------
   TIME STEP LENGTH 7.86240E+06 1.31040E+05  2184.0      91.000     0.24914    
 STRESS PERIOD TIME 7.86240E+06 1.31040E+05  2184.0      91.000     0.24914    
         TOTAL TIME 7.88832E+07 1.31472E+06  21912.      913.00      2.4997    
1
1
                            STRESS PERIOD NO.   11, LENGTH =   91.00000    
                            -----------------------------------------------

                              NUMBER OF TIME STEPS =     1

                               MULTIPLIER FOR DELT =     1.500

                            INITIAL TIME STEP SIZE =   91.00000    

 WELL NO.  LAYER   ROW   COL   STRESS RATE         
 --------------------------------------------------
      1      1      6     26      -9457.    
      2      1     23      4      -2056.    
      3      1     12     10      -1573.    
      4      1      4      5     -0.1159E+05

      4 WELLS

                 RECHARGE =   0.00000    

 REUSING STREAM SEGMENT DATA FROM LAST STRESS PERIOD
 
 SOLVING FOR HEAD 


     7 CALLS TO PCG ROUTINE FOR TIME STEP   1 IN STRESS PERIOD   11
    26 TOTAL ITERATIONS

 OUTPUT CONTROL FOR STRESS PERIOD   11   TIME STEP    1
    SAVE BUDGET
    SAVE HEAD FOR ALL LAYERS
    PRINT HEAD FOR ALL LAYERS
 UBDSV2 SAVING "STREAMFLOW OUT  " ON UNIT  50 AT TIME STEP  1, STRESS PERIOD  11



 STREAM LISTING     PERIOD     11   STEP        1

 LAYER ROW COL. STREAM  RCH.  FLOW INTO     FLOW TO   FLOW OUT OF   OVRLND.     DIRECT     STREAM       STREAM     STREAM     STREAM   STREAMBED  STREAMBED
                SEG.NO.  NO.  STRM. RCH.    AQUIFER    STRM. RCH.    RUNOFF     PRECIP       ET          HEAD       DEPTH      WIDTH   CONDCTNC.   GRADIENT

   1   13    1     1     1    1.0000E+05 -1.1326E+02   1.0011E+05  0.000E+00  0.000E+00  0.000E+00  4.84061E+01  1.447E-01  2.000E+01  2.000E+04 -5.663E-03
   1   13    2     1     2    1.0011E+05 -9.1747E+02   1.0103E+05  0.000E+00  0.000E+00  0.000E+00  4.79292E+01  1.451E-01  2.000E+01  2.000E+04 -4.587E-02
   1   14    3     1     3    1.0103E+05 -2.0502E+02   1.0124E+05  0.000E+00  0.000E+00  0.000E+00  4.74525E+01  1.456E-01  2.000E+01  2.000E+04 -1.025E-02
   1   15    4     1     4    1.0124E+05 -2.0369E+02   1.0144E+05  0.000E+00  0.000E+00  0.000E+00  4.69754E+01  1.458E-01  2.000E+01  2.000E+04 -1.018E-02
   1   16    5     1     5    1.0144E+05 -1.0215E+03   1.0246E+05  0.000E+00  0.000E+00  0.000E+00  4.64986E+01  1.463E-01  2.000E+01  2.000E+04 -5.107E-02
   1   16    6     1     6    1.0246E+05 -6.6946E+02   1.0313E+05  0.000E+00  0.000E+00  0.000E+00  4.60221E+01  1.471E-01  2.000E+01  2.000E+04 -3.347E-02
   1   16    7     1     7    1.0313E+05 -6.7531E+02   1.0381E+05  0.000E+00  0.000E+00  0.000E+00  4.55454E+01  1.476E-01  2.000E+01  2.000E+04 -3.377E-02
   1   16    8     1     8    1.0381E+05 -6.8837E+02   1.0449E+05  0.000E+00  0.000E+00  0.000E+00  4.50687E+01  1.482E-01  2.000E+01  2.000E+04 -3.442E-02
   1   16    9     1     9    1.0449E+05 -7.0133E+02   1.0520E+05  0.000E+00  0.000E+00  0.000E+00  4.45920E+01  1.488E-01  2.000E+01  2.000E+04 -3.507E-02
   1   16   10     1    10    1.0520E+05 -7.2696E+02   1.0592E+05  0.000E+00  0.000E+00  0.000E+00  4.41153E+01  1.494E-01  2.000E+01  2.000E+04 -3.635E-02
   1   16   11     1    11    1.0592E+05 -7.9704E+02   1.0672E+05  0.000E+00  0.000E+00  0.000E+00  4.36387E+01  1.501E-01  2.000E+01  2.000E+04 -3.985E-02
   1   16   12     1    12    1.0672E+05 -1.3674E+03   1.0809E+05  0.000E+00  0.000E+00  0.000E+00  4.31623E+01  1.510E-01  2.000E+01  2.000E+04 -6.837E-02
   1   15   13     1    13    1.0809E+05 -1.0167E+03   1.0910E+05  0.000E+00  0.000E+00  0.000E+00  4.26861E+01  1.520E-01  2.000E+01  2.000E+04 -5.084E-02
   1   14   14     1    14    1.0910E+05 -1.1232E+03   1.1023E+05  0.000E+00  0.000E+00  0.000E+00  4.22097E+01  1.529E-01  2.000E+01  2.000E+04 -5.616E-02
   1   13   15     1    15    1.1023E+05 -1.3137E+03   1.1154E+05  0.000E+00  0.000E+00  0.000E+00  4.17334E+01  1.539E-01  2.000E+01  2.000E+04 -6.569E-02
   1   12   16     1    16    1.1154E+05 -1.7233E+03   1.1326E+05  0.000E+00  0.000E+00  0.000E+00  4.12574E+01  1.552E-01  2.000E+01  2.000E+04 -8.617E-02
   1   12   17     1    17    1.1326E+05 -1.2657E+03   1.1453E+05  0.000E+00  0.000E+00  0.000E+00  4.07814E+01  1.564E-01  2.000E+01  2.000E+04 -6.328E-02
   1   12   18     1    18    1.1453E+05 -1.2473E+03   1.1578E+05  0.000E+00  0.000E+00  0.000E+00  4.03052E+01  1.574E-01  2.000E+01  2.000E+04 -6.237E-02
   1   12   19     1    19    1.1578E+05 -1.6056E+03   1.1738E+05  0.000E+00  0.000E+00  0.000E+00  3.98291E+01  1.586E-01  2.000E+01  2.000E+04 -8.028E-02
   1   13   20     1    20    1.1738E+05 -1.3428E+03   1.1873E+05  0.000E+00  0.000E+00  0.000E+00  3.93530E+01  1.598E-01  2.000E+01  2.000E+04 -6.714E-02
   1   14   21     1    21    1.1873E+05 -1.3733E+03   1.2010E+05  0.000E+00  0.000E+00  0.000E+00  3.88768E+01  1.609E-01  2.000E+01  2.000E+04 -6.867E-02
   1   14   22     1    22    1.2010E+05  4.9550E+03   1.1514E+05  0.000E+00  0.000E+00  0.000E+00  3.83981E+01  1.594E-01  2.000E+01  2.000E+04  2.478E-01
   1    9   30     2     1    5.0000E+04  2.9896E+02   4.9701E+04  0.000E+00  0.000E+00  0.000E+00  4.02407E+01  1.157E-01  2.000E+01  2.000E+04  1.495E-02
   1    9   29     2     2    4.9701E+04  9.0695E+01   4.9610E+04  0.000E+00  0.000E+00  0.000E+00  3.99904E+01  1.154E-01  2.000E+01  2.000E+04  4.535E-03
   1    9   28     2     3    4.9610E+04  4.6425E+01   4.9564E+04  0.000E+00  0.000E+00  0.000E+00  3.97403E+01  1.153E-01  2.000E+01  2.000E+04  2.321E-03
   1    9   27     2     4    4.9564E+04 -2.0772E+02   4.9772E+04  0.000E+00  0.000E+00  0.000E+00  3.94904E+01  1.154E-01  2.000E+01  2.000E+04 -1.039E-02
   1   10   26     2     5    4.9772E+04 -2.9959E+02   5.0071E+04  0.000E+00  0.000E+00  0.000E+00  3.92408E+01  1.158E-01  2.000E+01  2.000E+04 -1.498E-02
   1   11   25     2     6    5.0071E+04 -5.4744E+02   5.0619E+04  0.000E+00  0.000E+00  0.000E+00  3.89913E+01  1.163E-01  2.000E+01  2.000E+04 -2.737E-02
   1   12   24     2     7    5.0619E+04 -8.3896E+02   5.1458E+04  0.000E+00  0.000E+00  0.000E+00  3.87423E+01  1.173E-01  2.000E+01  2.000E+04 -4.195E-02
   1   13   23     2     8    5.1458E+04 -1.2452E+02   5.1582E+04  0.000E+00  0.000E+00  0.000E+00  3.84930E+01  1.180E-01  2.000E+01  2.000E+04 -6.226E-03
   1   14   22     2     9    5.1582E+04  1.8292E+03   4.9753E+04  0.000E+00  0.000E+00  0.000E+00  3.82418E+01  1.168E-01  2.000E+01  2.000E+04  9.146E-02
   1   14   22     3     1    1.6490E+05 -8.6042E+03   1.7350E+05  0.000E+00  0.000E+00  0.000E+00  3.77201E+01  1.646E-01  2.000E+01  2.000E+04 -4.302E-01
   1   15   23     3     2    1.7350E+05 -4.7304E+02   1.7397E+05  0.000E+00  0.000E+00  0.000E+00  3.68339E+01  1.672E-01  2.000E+01  2.000E+04 -2.365E-02
   1   15   24     3     3    1.7397E+05 -2.1704E+02   1.7419E+05  0.000E+00  0.000E+00  0.000E+00  3.59452E+01  1.674E-01  2.000E+01  2.000E+04 -1.085E-02
   1   15   25     3     4    1.7419E+05 -2.0776E+02   1.7440E+05  0.000E+00  0.000E+00  0.000E+00  3.50564E+01  1.675E-01  2.000E+01  2.000E+04 -1.039E-02
   1   15   26     3     5    1.7440E+05 -2.5413E+02   1.7465E+05  0.000E+00  0.000E+00  0.000E+00  3.41677E+01  1.677E-01  2.000E+01  2.000E+04 -1.271E-02
   1   16   27     3     6    1.7465E+05 -2.7565E+02   1.7493E+05  0.000E+00  0.000E+00  0.000E+00  3.32789E+01  1.678E-01  2.000E+01  2.000E+04 -1.378E-02
   1   17   28     3     7    1.7493E+05 -1.3242E+03   1.7625E+05  0.000E+00  0.000E+00  0.000E+00  3.23905E+01  1.683E-01  2.000E+01  2.000E+04 -6.621E-02
   1   18   29     3     8    1.7625E+05 -2.6812E+03   1.7893E+05  0.000E+00  0.000E+00  0.000E+00  3.15027E+01  1.694E-01  2.000E+01  2.000E+04 -1.341E-01
   1   18   30     3     9    1.7893E+05 -2.9977E+03   1.8193E+05  0.000E+00  0.000E+00  0.000E+00  3.06155E+01  1.710E-01  2.000E+01  2.000E+04 -1.499E-01



1
              HEAD IN LAYER   1 AT END OF TIME STEP   1 IN STRESS PERIOD   11
  ---------------------------------------------------------------------------

          1      2      3      4      5      6      7      8      9     10
         11     12     13     14     15     16     17     18     19     20
         21     22     23     24     25     26     27     28     29     30
 .........................................................................
   1  ****** ****** ****** ****** ****** ****** ****** ****** ****** ******
      ****** ****** ****** ****** ****** ****** ****** ****** ****** ******
      ****** ****** ****** ****** ****** ****** ****** ****** ****** ******
   2  ****** ****** ****** ****** ****** ****** ****** ****** ****** ******
      ****** ****** ****** ****** ****** ****** ****** ****** ****** ******
      ****** ****** ****** ****** ****** ****** ****** ****** ****** ******
   3  ****** ****** ****** ****** ****** ****** ****** ****** ****** ******
      ****** ****** ****** ****** ****** ****** ****** ****** ****** ******
      ****** ****** ****** ****** ****** ****** ****** ****** ****** ******
   4  ****** ****** ****** ****** ****** ****** ****** ****** ****** ******
      ****** ****** ****** ****** ****** ****** ****** ****** ****** ******
      ****** ****** ****** ****** ****** ****** ****** ****** ****** ******
   5  ****** ****** ****** ****** ****** ****** ****** ****** ****** ******
      ****** ****** ****** ****** ****** ****** ****** ****** ****** ******
      ****** ****** ****** ****** ****** ****** ****** ****** ****** ******
   6  ****** ****** ****** ****** ****** ****** ****** ****** ****** ******
      ****** ****** ****** ****** ****** ****** ****** ****** ****** ******
      ****** ****** ****** ****** ****** ****** ****** ****** ****** ******
   7  ****** ****** ****** ****** ****** ****** ****** ****** ****** ******
      ****** ****** ****** ****** ****** ****** ****** ****** ****** ******
      ****** ****** ****** ****** ****** ****** ****** ****** ****** ******
   8  ****** ****** ****** ****** ****** ****** ****** ****** ****** ******
      ****** ****** ****** ****** ****** ****** ****** ****** ****** ******
      ****** ****** ****** ****** ****** ****** ****** ****** ****** ******
   9  ****** ****** ****** ****** ****** ****** ****** ****** ****** ******
      ****** ****** ****** ****** ****** ****** ****** ****** ****** ******
      ****** ****** ****** ****** ****** ****** ****** ****** ****** ******
  10  ****** ****** ****** ****** ****** ****** ****** ****** ****** ******
      ****** ****** ****** ****** ****** ****** ****** ****** ****** ******
      ****** ****** ****** ****** ****** ****** ****** ****** ****** ******
  11  ****** ****** ****** ****** ****** ****** ****** ****** ****** ******
      ****** ****** ****** ****** ****** ****** ****** ****** ****** ******
      ****** ****** ****** ****** ****** ****** ****** ****** ****** ******
  12  ****** ****** ****** ****** ****** ****** ****** ****** ****** ******
      ****** ****** ****** ****** ****** ****** ****** ****** ****** ******
      ****** ****** ****** ****** ****** ****** ****** ****** ****** ******
  13  ****** ****** ****** ****** ****** ****** ****** ****** ****** ******
      ****** ****** ****** ****** ****** ****** ****** ****** ****** ******
      ****** ****** ****** ****** ****** ****** ****** ****** ****** ******
  14  ****** ****** ****** ****** ****** ****** ****** ****** ****** ******
      ****** ****** ****** ****** ****** ****** ****** ****** ****** ******
      ****** ****** ****** ****** ****** ****** ****** ****** ****** ******
  15  ****** ****** ****** ****** ****** ****** ****** ****** ****** ******
      ****** ****** ****** ****** ****** ****** ****** ****** ****** ******
      ****** ****** ****** ****** ****** ****** ****** ****** ****** ******
  16  ****** ****** ****** ****** ****** ****** ****** ****** ****** ******
      ****** ****** ****** ****** ****** ****** ****** ****** ****** ******
      ****** ****** ****** ****** ****** ****** ****** ****** ****** ******
  17  ****** ****** ****** ****** ****** ****** ****** ****** ****** ******
      ****** ****** ****** ****** ****** ****** ****** ****** ****** ******
      ****** ****** ****** ****** ****** ****** ****** ****** ****** ******
  18  ****** ****** ****** ****** ****** ****** ****** ****** ****** ******
      ****** ****** ****** ****** ****** ****** ****** ****** ****** ******
      ****** ****** ****** ****** ****** ****** ****** ****** ****** ******
  19  ****** ****** ****** ****** ****** ****** ****** ****** ****** ******
      ****** ****** ****** ****** ****** ****** ****** ****** ****** ******
      ****** ****** ****** ****** ****** ****** ****** ****** ****** ******
  20  ****** ****** ****** ****** ****** ****** ****** ****** ****** ******
      ****** ****** ****** ****** ****** ****** ****** ****** ****** ******
      ****** ****** ****** ****** ****** ****** ****** ****** ****** ******
  21  ****** ****** ****** ****** ****** ****** ****** ****** ****** ******
      ****** ****** ****** ****** ****** ****** ****** ****** ****** ******
      ****** ****** ****** ****** ****** ****** ****** ****** ****** ******
  22  ****** ****** ****** ****** ****** ****** ****** ****** ****** ******
      ****** ****** ****** ****** ****** ****** ****** ****** ****** ******
      ****** ****** ****** ****** ****** ****** ****** ****** ****** ******
  23  ****** ****** ****** ****** ****** ****** ****** ****** ****** ******
      ****** ****** ****** ****** ****** ****** ****** ****** ****** ******
      ****** ****** ****** ****** ****** ****** ****** ****** ****** ******
  24  ****** ****** ****** ****** ****** ****** ****** ****** ****** ******
      ****** ****** ****** ****** ****** ****** ****** ****** ****** ******
      ****** ****** ****** ****** ****** ****** ****** ****** ****** ******
  25  ****** ****** ****** ****** ****** ****** ****** ****** ****** ******
      ****** ****** ****** ****** ****** ****** ****** ****** ****** ******
      ****** ****** ****** ****** ****** ****** ****** ****** ****** ******

 HEAD WILL BE SAVED ON UNIT   51 AT END OF TIME STEP    1, STRESS PERIOD   11
1
  VOLUMETRIC BUDGET FOR ENTIRE MODEL AT END OF TIME STEP    1, STRESS PERIOD  11
  ------------------------------------------------------------------------------

     CUMULATIVE VOLUMES      L**3       RATES FOR THIS TIME STEP      L**3/T
     ------------------                 ------------------------

           IN:                                      IN:
           ---                                      ---
             STORAGE =    37606185.3238               STORAGE =       18351.3330
       CONSTANT HEAD =    31343100.7167         CONSTANT HEAD =       38255.3182
               WELLS =           0.0000                 WELLS =           0.0000
            RECHARGE =    23901600.0000              RECHARGE =           0.0000
      STREAM LEAKAGE =     6320998.5860        STREAM LEAKAGE =        7220.2923

            TOTAL IN =    99171884.6266              TOTAL IN =       63826.9435

          OUT:                                     OUT:
          ----                                     ----
             STORAGE =     2201975.5695               STORAGE =           0.0000
       CONSTANT HEAD =           0.0000         CONSTANT HEAD =           0.0000
               WELLS =    24773887.7229                 WELLS =       24675.1870
            RECHARGE =           0.0000              RECHARGE =           0.0000
      STREAM LEAKAGE =    72196023.5526        STREAM LEAKAGE =       39151.7615

           TOTAL OUT =    99171886.8451             TOTAL OUT =       63826.9484

            IN - OUT =          -2.2186              IN - OUT =      -4.8797E-03

 PERCENT DISCREPANCY =          -0.00     PERCENT DISCREPANCY =          -0.00






         TIME SUMMARY AT END OF TIME STEP    1 IN STRESS PERIOD   11
                    SECONDS     MINUTES      HOURS       DAYS        YEARS
                    -----------------------------------------------------------
   TIME STEP LENGTH 7.86240E+06 1.31040E+05  2184.0      91.000     0.24914    
 STRESS PERIOD TIME 7.86240E+06 1.31040E+05  2184.0      91.000     0.24914    
         TOTAL TIME 8.67456E+07 1.44576E+06  24096.      1004.0      2.7488    
1
1
                            STRESS PERIOD NO.   12, LENGTH =   91.00000    
                            -----------------------------------------------

                              NUMBER OF TIME STEPS =     1

                               MULTIPLIER FOR DELT =     1.500

                            INITIAL TIME STEP SIZE =   91.00000    

 WELL NO.  LAYER   ROW   COL   STRESS RATE         
 --------------------------------------------------
      1      1      6     26      -9457.    
      2      1     23      4      -2056.    
      3      1     12     10      -1573.    
      4      1      4      5     -0.1159E+05

      4 WELLS

                 RECHARGE =  1.000000E-03

 REUSING STREAM SEGMENT DATA FROM LAST STRESS PERIOD
 
 SOLVING FOR HEAD 


     7 CALLS TO PCG ROUTINE FOR TIME STEP   1 IN STRESS PERIOD   12
    24 TOTAL ITERATIONS

 OUTPUT CONTROL FOR STRESS PERIOD   12   TIME STEP    1
    SAVE BUDGET
    SAVE HEAD FOR ALL LAYERS
    PRINT HEAD FOR ALL LAYERS
 UBDSV2 SAVING "STREAMFLOW OUT  " ON UNIT  50 AT TIME STEP  1, STRESS PERIOD  12



 STREAM LISTING     PERIOD     12   STEP        1

 LAYER ROW COL. STREAM  RCH.  FLOW INTO     FLOW TO   FLOW OUT OF   OVRLND.     DIRECT     STREAM       STREAM     STREAM     STREAM   STREAMBED  STREAMBED
                SEG.NO.  NO.  STRM. RCH.    AQUIFER    STRM. RCH.    RUNOFF     PRECIP       ET          HEAD       DEPTH      WIDTH   CONDCTNC.   GRADIENT

   1   13    1     1     1    1.0000E+05 -2.4711E+02   1.0025E+05  0.000E+00  0.000E+00  0.000E+00  4.84061E+01  1.448E-01  2.000E+01  2.000E+04 -1.236E-02
   1   13    2     1     2    1.0025E+05 -1.0602E+03   1.0131E+05  0.000E+00  0.000E+00  0.000E+00  4.79294E+01  1.453E-01  2.000E+01  2.000E+04 -5.301E-02
   1   14    3     1     3    1.0131E+05 -2.8161E+02   1.0159E+05  0.000E+00  0.000E+00  0.000E+00  4.74527E+01  1.459E-01  2.000E+01  2.000E+04 -1.408E-02
   1   15    4     1     4    1.0159E+05 -2.8445E+02   1.0187E+05  0.000E+00  0.000E+00  0.000E+00  4.69757E+01  1.461E-01  2.000E+01  2.000E+04 -1.422E-02
   1   16    5     1     5    1.0187E+05 -1.2302E+03   1.0310E+05  0.000E+00  0.000E+00  0.000E+00  4.64991E+01  1.468E-01  2.000E+01  2.000E+04 -6.151E-02
   1   16    6     1     6    1.0310E+05 -7.9852E+02   1.0390E+05  0.000E+00  0.000E+00  0.000E+00  4.60227E+01  1.477E-01  2.000E+01  2.000E+04 -3.993E-02
   1   16    7     1     7    1.0390E+05 -7.9916E+02   1.0470E+05  0.000E+00  0.000E+00  0.000E+00  4.55461E+01  1.484E-01  2.000E+01  2.000E+04 -3.996E-02
   1   16    8     1     8    1.0470E+05 -8.1123E+02   1.0551E+05  0.000E+00  0.000E+00  0.000E+00  4.50695E+01  1.490E-01  2.000E+01  2.000E+04 -4.056E-02
   1   16    9     1     9    1.0551E+05 -8.2482E+02   1.0634E+05  0.000E+00  0.000E+00  0.000E+00  4.45929E+01  1.497E-01  2.000E+01  2.000E+04 -4.124E-02
   1   16   10     1    10    1.0634E+05 -8.5211E+02   1.0719E+05  0.000E+00  0.000E+00  0.000E+00  4.41164E+01  1.504E-01  2.000E+01  2.000E+04 -4.261E-02
   1   16   11     1    11    1.0719E+05 -9.2483E+02   1.0811E+05  0.000E+00  0.000E+00  0.000E+00  4.36398E+01  1.512E-01  2.000E+01  2.000E+04 -4.624E-02
   1   16   12     1    12    1.0811E+05 -1.5678E+03   1.0968E+05  0.000E+00  0.000E+00  0.000E+00  4.31636E+01  1.522E-01  2.000E+01  2.000E+04 -7.839E-02
   1   15   13     1    13    1.0968E+05 -1.2302E+03   1.1091E+05  0.000E+00  0.000E+00  0.000E+00  4.26875E+01  1.534E-01  2.000E+01  2.000E+04 -6.151E-02
   1   14   14     1    14    1.1091E+05 -1.3358E+03   1.1225E+05  0.000E+00  0.000E+00  0.000E+00  4.22113E+01  1.545E-01  2.000E+01  2.000E+04 -6.679E-02
   1   13   15     1    15    1.1225E+05 -1.5179E+03   1.1377E+05  0.000E+00  0.000E+00  0.000E+00  4.17352E+01  1.557E-01  2.000E+01  2.000E+04 -7.589E-02
   1   12   16     1    16    1.1377E+05 -1.8990E+03   1.1566E+05  0.000E+00  0.000E+00  0.000E+00  4.12593E+01  1.571E-01  2.000E+01  2.000E+04 -9.495E-02
   1   12   17     1    17    1.1566E+05 -1.4154E+03   1.1708E+05  0.000E+00  0.000E+00  0.000E+00  4.07834E+01  1.584E-01  2.000E+01  2.000E+04 -7.077E-02
   1   12   18     1    18    1.1708E+05 -1.4000E+03   1.1848E+05  0.000E+00  0.000E+00  0.000E+00  4.03073E+01  1.596E-01  2.000E+01  2.000E+04 -7.000E-02
   1   12   19     1    19    1.1848E+05 -1.7946E+03   1.2027E+05  0.000E+00  0.000E+00  0.000E+00  3.98313E+01  1.609E-01  2.000E+01  2.000E+04 -8.973E-02
   1   13   20     1    20    1.2027E+05 -1.5519E+03   1.2183E+05  0.000E+00  0.000E+00  0.000E+00  3.93554E+01  1.622E-01  2.000E+01  2.000E+04 -7.760E-02
   1   14   21     1    21    1.2183E+05 -1.5672E+03   1.2339E+05  0.000E+00  0.000E+00  0.000E+00  3.88794E+01  1.635E-01  2.000E+01  2.000E+04 -7.836E-02
   1   14   22     1    22    1.2339E+05  4.9013E+03   1.1849E+05  0.000E+00  0.000E+00  0.000E+00  3.84008E+01  1.621E-01  2.000E+01  2.000E+04  2.451E-01
   1    9   30     2     1    5.0000E+04  1.2319E+02   4.9877E+04  0.000E+00  0.000E+00  0.000E+00  4.02408E+01  1.158E-01  2.000E+01  2.000E+04  6.159E-03
   1    9   29     2     2    4.9877E+04 -8.2967E+01   4.9960E+04  0.000E+00  0.000E+00  0.000E+00  3.99908E+01  1.158E-01  2.000E+01  2.000E+04 -4.148E-03
   1    9   28     2     3    4.9960E+04 -1.2355E+02   5.0083E+04  0.000E+00  0.000E+00  0.000E+00  3.97409E+01  1.159E-01  2.000E+01  2.000E+04 -6.178E-03
   1    9   27     2     4    5.0083E+04 -4.1493E+02   5.0498E+04  0.000E+00  0.000E+00  0.000E+00  3.94913E+01  1.163E-01  2.000E+01  2.000E+04 -2.075E-02
   1   10   26     2     5    5.0498E+04 -5.2770E+02   5.1026E+04  0.000E+00  0.000E+00  0.000E+00  3.92419E+01  1.169E-01  2.000E+01  2.000E+04 -2.638E-02
   1   11   25     2     6    5.1026E+04 -7.7170E+02   5.1798E+04  0.000E+00  0.000E+00  0.000E+00  3.89928E+01  1.178E-01  2.000E+01  2.000E+04 -3.858E-02
   1   12   24     2     7    5.1798E+04 -1.0435E+03   5.2841E+04  0.000E+00  0.000E+00  0.000E+00  3.87441E+01  1.191E-01  2.000E+01  2.000E+04 -5.217E-02
   1   13   23     2     8    5.2841E+04 -2.0188E+02   5.3043E+04  0.000E+00  0.000E+00  0.000E+00  3.84949E+01  1.199E-01  2.000E+01  2.000E+04 -1.009E-02
   1   14   22     2     9    5.3043E+04  1.7628E+03   5.1280E+04  0.000E+00  0.000E+00  0.000E+00  3.82438E+01  1.188E-01  2.000E+01  2.000E+04  8.814E-02
   1   14   22     3     1    1.6977E+05 -8.6548E+03   1.7843E+05  0.000E+00  0.000E+00  0.000E+00  3.77230E+01  1.674E-01  2.000E+01  2.000E+04 -4.327E-01
   1   15   23     3     2    1.7843E+05 -5.4515E+02   1.7897E+05  0.000E+00  0.000E+00  0.000E+00  3.68367E+01  1.700E-01  2.000E+01  2.000E+04 -2.726E-02
   1   15   24     3     3    1.7897E+05 -2.8217E+02   1.7926E+05  0.000E+00  0.000E+00  0.000E+00  3.59481E+01  1.703E-01  2.000E+01  2.000E+04 -1.411E-02
   1   15   25     3     4    1.7926E+05 -2.7416E+02   1.7953E+05  0.000E+00  0.000E+00  0.000E+00  3.50593E+01  1.704E-01  2.000E+01  2.000E+04 -1.371E-02
   1   15   26     3     5    1.7953E+05 -3.3165E+02   1.7986E+05  0.000E+00  0.000E+00  0.000E+00  3.41706E+01  1.706E-01  2.000E+01  2.000E+04 -1.658E-02
   1   16   27     3     6    1.7986E+05 -3.6249E+02   1.8022E+05  0.000E+00  0.000E+00  0.000E+00  3.32819E+01  1.708E-01  2.000E+01  2.000E+04 -1.812E-02
   1   17   28     3     7    1.8022E+05 -1.5451E+03   1.8177E+05  0.000E+00  0.000E+00  0.000E+00  3.23936E+01  1.714E-01  2.000E+01  2.000E+04 -7.726E-02
   1   18   29     3     8    1.8177E+05 -2.8822E+03   1.8465E+05  0.000E+00  0.000E+00  0.000E+00  3.15059E+01  1.726E-01  2.000E+01  2.000E+04 -1.441E-01
   1   18   30     3     9    1.8465E+05 -3.1661E+03   1.8782E+05  0.000E+00  0.000E+00  0.000E+00  3.06188E+01  1.743E-01  2.000E+01  2.000E+04 -1.583E-01



1
              HEAD IN LAYER   1 AT END OF TIME STEP   1 IN STRESS PERIOD   12
  ---------------------------------------------------------------------------

          1      2      3      4      5      6      7      8      9     10
         11     12     13     14     15     16     17     18     19     20
         21     22     23     24     25     26     27     28     29     30
 .........................................................................
   1  ****** ****** ****** ****** ****** ****** ****** ****** ****** ******
      ****** ****** ****** ****** ****** ****** ****** ****** ****** ******
      ****** ****** ****** ****** ****** ****** ****** ****** ****** ******
   2  ****** ****** ****** ****** ****** ****** ****** ****** ****** ******
      ****** ****** ****** ****** ****** ****** ****** ****** ****** ******
      ****** ****** ****** ****** ****** ****** ****** ****** ****** ******
   3  ****** ****** ****** ****** ****** ****** ****** ****** ****** ******
      ****** ****** ****** ****** ****** ****** ****** ****** ****** ******
      ****** ****** ****** ****** ****** ****** ****** ****** ****** ******
   4  ****** ****** ****** ****** ****** ****** ****** ****** ****** ******
      ****** ****** ****** ****** ****** ****** ****** ****** ****** ******
      ****** ****** ****** ****** ****** ****** ****** ****** ****** ******
   5  ****** ****** ****** ****** ****** ****** ****** ****** ****** ******
      ****** ****** ****** ****** ****** ****** ****** ****** ****** ******
      ****** ****** ****** ****** ****** ****** ****** ****** ****** ******
   6  ****** ****** ****** ****** ****** ****** ****** ****** ****** ******
      ****** ****** ****** ****** ****** ****** ****** ****** ****** ******
      ****** ****** ****** ****** ****** ****** ****** ****** ****** ******
   7  ****** ****** ****** ****** ****** ****** ****** ****** ****** ******
      ****** ****** ****** ****** ****** ****** ****** ****** ****** ******
      ****** ****** ****** ****** ****** ****** ****** ****** ****** ******
   8  ****** ****** ****** ****** ****** ****** ****** ****** ****** ******
      ****** ****** ****** ****** ****** ****** ****** ****** ****** ******
      ****** ****** ****** ****** ****** ****** ****** ****** ****** ******
   9  ****** ****** ****** ****** ****** ****** ****** ****** ****** ******
      ****** ****** ****** ****** ****** ****** ****** ****** ****** ******
      ****** ****** ****** ****** ****** ****** ****** ****** ****** ******
  10  ****** ****** ****** ****** ****** ****** ****** ****** ****** ******
      ****** ****** ****** ****** ****** ****** ****** ****** ****** ******
      ****** ****** ****** ****** ****** ****** ****** ****** ****** ******
  11  ****** ****** ****** ****** ****** ****** ****** ****** ****** ******
      ****** ****** ****** ****** ****** ****** ****** ****** ****** ******
      ****** ****** ****** ****** ****** ****** ****** ****** ****** ******
  12  ****** ****** ****** ****** ****** ****** ****** ****** ****** ******
      ****** ****** ****** ****** ****** ****** ****** ****** ****** ******
      ****** ****** ****** ****** ****** ****** ****** ****** ****** ******
  13  ****** ****** ****** ****** ****** ****** ****** ****** ****** ******
      ****** ****** ****** ****** ****** ****** ****** ****** ****** ******
      ****** ****** ****** ****** ****** ****** ****** ****** ****** ******
  14  ****** ****** ****** ****** ****** ****** ****** ****** ****** ******
      ****** ****** ****** ****** ****** ****** ****** ****** ****** ******
      ****** ****** ****** ****** ****** ****** ****** ****** ****** ******
  15  ****** ****** ****** ****** ****** ****** ****** ****** ****** ******
      ****** ****** ****** ****** ****** ****** ****** ****** ****** ******
      ****** ****** ****** ****** ****** ****** ****** ****** ****** ******
  16  ****** ****** ****** ****** ****** ****** ****** ****** ****** ******
      ****** ****** ****** ****** ****** ****** ****** ****** ****** ******
      ****** ****** ****** ****** ****** ****** ****** ****** ****** ******
  17  ****** ****** ****** ****** ****** ****** ****** ****** ****** ******
      ****** ****** ****** ****** ****** ****** ****** ****** ****** ******
      ****** ****** ****** ****** ****** ****** ****** ****** ****** ******
  18  ****** ****** ****** ****** ****** ****** ****** ****** ****** ******
      ****** ****** ****** ****** ****** ****** ****** ****** ****** ******
      ****** ****** ****** ****** ****** ****** ****** ****** ****** ******
  19  ****** ****** ****** ****** ****** ****** ****** ****** ****** ******
      ****** ****** ****** ****** ****** ****** ****** ****** ****** ******
      ****** ****** ****** ****** ****** ****** ****** ****** ****** ******
  20  ****** ****** ****** ****** ****** ****** ****** ****** ****** ******
      ****** ****** ****** ****** ****** ****** ****** ****** ****** ******
      ****** ****** ****** ****** ****** ****** ****** ****** ****** ******
  21  ****** ****** ****** ****** ****** ****** ****** ****** ****** ******
      ****** ****** ****** ****** ****** ****** ****** ****** ****** ******
      ****** ****** ****** ****** ****** ****** ****** ****** ****** ******
  22  ****** ****** ****** ****** ****** ****** ****** ****** ****** ******
      ****** ****** ****** ****** ****** ****** ****** ****** ****** ******
      ****** ****** ****** ****** ****** ****** ****** ****** ****** ******
  23  ****** ****** ****** ****** ****** ****** ****** ****** ****** ******
      ****** ****** ****** ****** ****** ****** ****** ****** ****** ******
      ****** ****** ****** ****** ****** ****** ****** ****** ****** ******
  24  ****** ****** ****** ****** ****** ****** ****** ****** ****** ******
      ****** ****** ****** ****** ****** ****** ****** ****** ****** ******
      ****** ****** ****** ****** ****** ****** ****** ****** ****** ******
  25  ****** ****** ****** ****** ****** ****** ****** ****** ****** ******
      ****** ****** ****** ****** ****** ****** ****** ****** ****** ******
      ****** ****** ****** ****** ****** ****** ****** ****** ****** ******

 HEAD WILL BE SAVED ON UNIT   51 AT END OF TIME STEP    1, STRESS PERIOD   12
1
  VOLUMETRIC BUDGET FOR ENTIRE MODEL AT END OF TIME STEP    1, STRESS PERIOD  12
  ------------------------------------------------------------------------------

     CUMULATIVE VOLUMES      L**3       RATES FOR THIS TIME STEP      L**3/T
     ------------------                 ------------------------

           IN:                                      IN:
           ---                                      ---
             STORAGE =    37617850.7587               STORAGE =         128.1916
       CONSTANT HEAD =    34763909.6507         CONSTANT HEAD =       37591.3070
               WELLS =           0.0000                 WELLS =           0.0000
            RECHARGE =    26413200.0000              RECHARGE =       27600.0000
      STREAM LEAKAGE =     6938640.1581        STREAM LEAKAGE =        6787.2700

            TOTAL IN =   105733600.5675              TOTAL IN =       72106.7686

          OUT:                                     OUT:
          ----                                     ----
             STORAGE =     2459270.3126               STORAGE =        2827.4148
       CONSTANT HEAD =           0.0000         CONSTANT HEAD =           0.0000
               WELLS =    27019329.7377                 WELLS =       24675.1870
            RECHARGE =           0.0000              RECHARGE =           0.0000
      STREAM LEAKAGE =    76255002.6570        STREAM LEAKAGE =       44604.1660

           TOTAL OUT =   105733602.7073             TOTAL OUT =       72106.7677

            IN - OUT =          -2.1398              IN - OUT =       8.6585E-04

 PERCENT DISCREPANCY =          -0.00     PERCENT DISCREPANCY =           0.00






         TIME SUMMARY AT END OF TIME STEP    1 IN STRESS PERIOD   12
                    SECONDS     MINUTES      HOURS       DAYS        YEARS
                    -----------------------------------------------------------
   TIME STEP LENGTH 7.86240E+06 1.31040E+05  2184.0      91.000     0.24914    
 STRESS PERIOD TIME 7.86240E+06 1.31040E+05  2184.0      91.000     0.24914    
         TOTAL TIME 9.46080E+07 1.57680E+06  26280.      1095.0      2.9979    
1

 Run end date and time (yyyy/mm/dd hh:mm:ss): 2018/10/15 13:09:04
 Elapsed run time:  0.142 Seconds

