                                  MODFLOW-2005     
      U.S. GEOLOGICAL SURVEY MODULAR FINITE-DIFFERENCE GROUND-WATER FLOW MODEL
                            VERSION 1.11.00 8/8/2013

 LIST FILE: supply2.lst
                         UNIT   10

 OPENING ..\data\supply.dis
 FILE TYPE:DIS   UNIT   11   STATUS:OLD    
 FORMAT:FORMATTED              ACCESS:SEQUENTIAL          

 OPENING ..\data\supply.ba6
 FILE TYPE:BAS6   UNIT   12   STATUS:OLD    
 FORMAT:FORMATTED              ACCESS:SEQUENTIAL          

 OPENING ..\data\supply.bc6
 FILE TYPE:BCF6   UNIT   13   STATUS:OLD    
 FORMAT:FORMATTED              ACCESS:SEQUENTIAL          

 OPENING ..\data\supply.rch
 FILE TYPE:RCH   UNIT   15   STATUS:OLD    
 FORMAT:FORMATTED              ACCESS:SEQUENTIAL          

 OPENING ..\data\supply2.sfr
 FILE TYPE:SFR   UNIT   16   STATUS:OLD    
 FORMAT:FORMATTED              ACCESS:SEQUENTIAL          

 OPENING ..\data\supply.oc
 FILE TYPE:OC   UNIT   17   STATUS:OLD    
 FORMAT:FORMATTED              ACCESS:SEQUENTIAL          

 OPENING ..\data\supply.pcg
 FILE TYPE:PCG   UNIT   18   STATUS:OLD    
 FORMAT:FORMATTED              ACCESS:SEQUENTIAL          

 OPENING supply2.wel
 FILE TYPE:WEL   UNIT   19   STATUS:OLD    
 FORMAT:FORMATTED              ACCESS:SEQUENTIAL          

 OPENING supply2sf.cbc
 FILE TYPE:DATA(BINARY)   UNIT   50   STATUS:UNKNOWN
 FORMAT:BINARY                 ACCESS:SEQUENTIAL          

 OPENING supply2hd.bhd
 FILE TYPE:DATA(BINARY)   UNIT   51   STATUS:UNKNOWN
 FORMAT:BINARY                 ACCESS:SEQUENTIAL          

 BAS -- BASIC PACKAGE, VERSION 7, 5/2/2005 INPUT READ FROM UNIT   12
 
 MODFLOW was compiled using uniform precision
 Precision of REAL and DOUBLE PRECISION variables:          15

 DISCRETIZATION INPUT DATA READ FROM UNIT   11
    1 LAYERS        25 ROWS        30 COLUMNS
   12 STRESS PERIOD(S) IN SIMULATION
 MODEL TIME UNIT IS DAYS
 MODEL LENGTH UNIT IS UNDEFINED
  Confining bed flag for each layer:
   0

                     DELR =   200.000    

                     DELC =   200.000    

 TOP ELEVATION OF LAYER 1 =  100.0000    

   MODEL LAYER BOTTOM EL. =   0.00000     FOR LAYER   1


 STRESS PERIOD     LENGTH       TIME STEPS     MULTIPLIER FOR DELT    SS FLAG
 ----------------------------------------------------------------------------
        1         92.00000          1                    1.500         TR
        2         91.00000          1                    1.500         TR
        3         91.00000          1                    1.500         TR
        4         91.00000          1                    1.500         TR
        5         92.00000          1                    1.500         TR
        6         91.00000          1                    1.500         TR
        7         91.00000          1                    1.500         TR
        8         91.00000          1                    1.500         TR
        9         92.00000          1                    1.500         TR
       10         91.00000          1                    1.500         TR
       11         91.00000          1                    1.500         TR
       12         91.00000          1                    1.500         TR

 TRANSIENT SIMULATION



 
 #MODOFC transient water supply sample problem                                   
 #                                                                               
 THE FREE FORMAT OPTION HAS BEEN SELECTED



                     BOUNDARY ARRAY FOR LAYER   1
 READING ON UNIT   12 WITH FORMAT: (20I4)              

 AQUIFER HEAD WILL BE SET TO   0.0000     AT ALL NO-FLOW NODES (IBOUND=0).



                       INITIAL HEAD FOR LAYER   1
 READING ON UNIT   12 WITH FORMAT: (10F13.0)           

 OUTPUT CONTROL IS SPECIFIED ONLY AT TIME STEPS FOR WHICH OUTPUT IS DESIRED
 COMPACT CELL-BY-CELL BUDGET FILES WILL BE WRITTEN
 HEAD PRINT FORMAT CODE IS  18    DRAWDOWN PRINT FORMAT CODE IS   0
 HEADS WILL BE SAVED ON UNIT   51    DRAWDOWNS WILL BE SAVED ON UNIT    0

 BCF -- BLOCK-CENTERED FLOW PACKAGE, VERSION 7, 5/2/2005
         INPUT READ FROM UNIT 13
 TRANSIENT SIMULATION
 HEAD AT CELLS THAT CONVERT TO DRY=   0.0000    
 WETTING CAPABILITY IS NOT ACTIVE
      LAYER  LAYER-TYPE CODE     INTERBLOCK T
      --------------------------------------------
         1            0          0 -- HARMONIC    

 COLUMN TO ROW ANISOTROPY =  1.000000    

     PRIMARY STORAGE COEF =  5.000000E-02 FOR LAYER   1

     TRANSMIS. ALONG ROWS =   500.000     FOR LAYER   1

 WEL -- WELL PACKAGE, VERSION 7, 5/2/2005 INPUT READ FROM UNIT   19
 # Well package input file written by MMProc
 No named parameters
 MAXIMUM OF      4 ACTIVE WELLS AT ONE TIME


     0 Well parameters

 RCH -- RECHARGE PACKAGE, VERSION 7, 5/2/2005 INPUT READ FROM UNIT   15
 No named parameters
 OPTION 1 -- RECHARGE TO TOP LAYER


     0 Recharge parameters

 SFR7 -- STREAMFLOW ROUTING PACKAGE, VERSION 1.0.7, 2013-01-15
         INPUT READ FROM UNIT  16
 #  Supply2 test problem for GWM-VI
 #  The eighth entry in the first data line is ISTCB2 -
 #    Setting this to a negative number indicates that
 #    streamflows out of the reach will be saved to a
 #    binary file.  The absolute value of ISTCB2 is the
 #    unit to which unformatted flows will be written.
 #
 No named parameters
 Segment information will not be 
 read by reach
 No named parameters
 No specifed inflow files


 NUMBER OF STREAM REACHES IS   40

 NUMBER OF STREAM SEGMENTS IS    3

 NUMBER OF STREAM PARAMETERS IS    0

 NUMBER OF STREAM SEGMENTS DEFINED USING PARAMETERS IS              0

 MAXIMUM ERROR FOR STREAM LEAKAGE RATES IS  1.00E-04

 CONSTANT FOR MANNINGS EQUATION IS  1.2839E+05





   STREAM NETWORK DESCRIPTION: 

   LAYER    ROW    COL   SEGMENT   REACH     LENGTH
                          NUMBER   NUMBER    IN CELL        
   --------------------------------------------------
      1     13      1       1        1    2.0000E+02
      1     13      2       1        2    2.0000E+02
      1     14      3       1        3    2.0000E+02
      1     15      4       1        4    2.0000E+02
      1     16      5       1        5    2.0000E+02
      1     16      6       1        6    2.0000E+02
      1     16      7       1        7    2.0000E+02
      1     16      8       1        8    2.0000E+02
      1     16      9       1        9    2.0000E+02
      1     16     10       1       10    2.0000E+02
      1     16     11       1       11    2.0000E+02
      1     16     12       1       12    2.0000E+02
      1     15     13       1       13    2.0000E+02
      1     14     14       1       14    2.0000E+02
      1     13     15       1       15    2.0000E+02
      1     12     16       1       16    2.0000E+02
      1     12     17       1       17    2.0000E+02
      1     12     18       1       18    2.0000E+02
      1     12     19       1       19    2.0000E+02
      1     13     20       1       20    2.0000E+02
      1     14     21       1       21    2.0000E+02
      1     14     22       1       22    2.0000E+02
      1      9     30       2        1    2.0000E+02
      1      9     29       2        2    2.0000E+02
      1      9     28       2        3    2.0000E+02
      1      9     27       2        4    2.0000E+02
      1     10     26       2        5    2.0000E+02
      1     11     25       2        6    2.0000E+02
      1     12     24       2        7    2.0000E+02
      1     13     23       2        8    2.0000E+02
      1     14     22       2        9    2.0000E+02
      1     14     22       3        1    2.0000E+02
      1     15     23       3        2    2.0000E+02
      1     15     24       3        3    2.0000E+02
      1     15     25       3        4    2.0000E+02
      1     15     26       3        5    2.0000E+02
      1     16     27       3        6    2.0000E+02
      1     17     28       3        7    2.0000E+02
      1     18     29       3        8    2.0000E+02
      1     18     30       3        9    2.0000E+02




 PCG -- CONJUGATE-GRADIENT SOLUTION PACKAGE, VERSION 7, 5/2/2005
 MAXIMUM OF    500 CALLS OF SOLUTION ROUTINE
 MAXIMUM OF      5 INTERNAL ITERATIONS PER CALL TO SOLUTION ROUTINE
 MATRIX PRECONDITIONING TYPE :    1



                                    SOLUTION BY THE CONJUGATE-GRADIENT METHOD
                                   -------------------------------------------
                    MAXIMUM NUMBER OF CALLS TO PCG ROUTINE =      500
                        MAXIMUM ITERATIONS PER CALL TO PCG =        5
                               MATRIX PRECONDITIONING TYPE =        1
        RELAXATION FACTOR (ONLY USED WITH PRECOND. TYPE 1) =    0.10000E+01
 PARAMETER OF POLYNOMIAL PRECOND. = 2 (2) OR IS CALCULATED :        0
                         HEAD CHANGE CRITERION FOR CLOSURE =    0.10000E-05
                     RESIDUAL CHANGE CRITERION FOR CLOSURE =    0.10000E+01
            PCG HEAD AND RESIDUAL CHANGE PRINTOUT INTERVAL =        1
     PRINTING FROM SOLVER IS LIMITED(1) OR SUPPRESSED (>1) =        1
                            STEADY-STATE DAMPING PARAMETER =    0.10000E+01
                               TRANSIENT DAMPING PARAMETER =    0.10000E+01
1
                            STRESS PERIOD NO.    1, LENGTH =   92.00000    
                            -----------------------------------------------

                              NUMBER OF TIME STEPS =     1

                               MULTIPLIER FOR DELT =     1.500

                            INITIAL TIME STEP SIZE =   92.00000    

 WELL NO.  LAYER   ROW   COL   STRESS RATE         
 --------------------------------------------------
      1      1     23     20     -0.3361E+05
      2      1     23      4     -0.3381E+05
      3      1      5     26     -0.3082E+05
      4      1     21     27     -0.3506E+05

      4 WELLS

                 RECHARGE =  5.000000E-04



 CLASSIFICATION & COUNT OF STREAM SEGMENTS BASED ON SOURCE OF INFLOW:

                HEADWATER     DIVERSION     RECEIVES TRIBUTARY FLOW
                ---------     ---------     -----------------------
                     2              0               1



                    INPUT DATA FOR EACH STREAM SEGMENT
 ---------------------------------------------------------------------------------------------

 SEGMENT    SEG.     INFLOW   OVERLAND   STREAM    STREAM   ICALC  OUTFLOW  DIVERSION PRIORITY
    NO.    LENGTH     RATE     RUNOFF      ET       PPT.    METH.  TO SEG.  FROM SEG.    NO.

      1  4.400E+03 1.000E+05 0.000E+00 0.000E+00 0.000E+00    1        3        0        0
      2  1.800E+03 5.000E+04 0.000E+00 0.000E+00 0.000E+00    1        3        0        0
      3  1.800E+03 0.000E+00 0.000E+00 0.000E+00 0.000E+00    1        0        0        0


         STREAMBED PROPERTIES AND STREAM DIMENSIONS

 SEGMENT     BED HYD. COND.      BED THICKNESS     ELEV.-TOP OF BED     WIDTH OF STREAM     DEPTH OF STREAM    STREAM ROUGHNESS
    No.     UPPER     LOWER     UPPER     LOWER     UPPER     LOWER     UPPER     LOWER     UPPER     LOWER   CHANNEL      BANK

     1  5.000E+00 5.000E+00 1.000E+00 1.000E+00 4.850E+01 3.800E+01 2.000E+01 2.000E+01                     5.000E-02
     2  5.000E+00 5.000E+00 1.000E+00 1.000E+00 4.025E+01 3.800E+01 2.000E+01 2.000E+01                     5.000E-02
     3  5.000E+00 5.000E+00 1.000E+00 1.000E+00 3.800E+01 3.000E+01 2.000E+01 2.000E+01                     5.000E-02



 
 SOLVING FOR HEAD 


     8 CALLS TO PCG ROUTINE FOR TIME STEP   1 IN STRESS PERIOD    1
    34 TOTAL ITERATIONS

 OUTPUT CONTROL FOR STRESS PERIOD    1   TIME STEP    1
    SAVE BUDGET
    SAVE HEAD FOR ALL LAYERS
    PRINT HEAD FOR ALL LAYERS
 UBDSV2 SAVING "STREAMFLOW OUT  " ON UNIT  50 AT TIME STEP  1, STRESS PERIOD   1



 STREAM LISTING     PERIOD      1   STEP        1

 LAYER ROW COL. STREAM  RCH.  FLOW INTO     FLOW TO   FLOW OUT OF   OVRLND.     DIRECT     STREAM       STREAM     STREAM     STREAM   STREAMBED  STREAMBED
                SEG.NO.  NO.  STRM. RCH.    AQUIFER    STRM. RCH.    RUNOFF     PRECIP       ET          HEAD       DEPTH      WIDTH   CONDCTNC.   GRADIENT

   1   13    1     1     1    1.0000E+05 -5.5866E+03   1.0559E+05  0.000E+00  0.000E+00  0.000E+00  4.84084E+01  1.471E-01  2.000E+01  2.000E+04 -2.793E-01
   1   13    2     1     2    1.0559E+05 -8.4719E+03   1.1406E+05  0.000E+00  0.000E+00  0.000E+00  4.79371E+01  1.530E-01  2.000E+01  2.000E+04 -4.236E-01
   1   14    3     1     3    1.1406E+05 -7.5458E+03   1.2160E+05  0.000E+00  0.000E+00  0.000E+00  4.74664E+01  1.596E-01  2.000E+01  2.000E+04 -3.773E-01
   1   15    4     1     4    1.2160E+05 -7.1767E+03   1.2878E+05  0.000E+00  0.000E+00  0.000E+00  4.69951E+01  1.655E-01  2.000E+01  2.000E+04 -3.588E-01
   1   16    5     1     5    1.2878E+05 -6.5985E+03   1.3538E+05  0.000E+00  0.000E+00  0.000E+00  4.65232E+01  1.709E-01  2.000E+01  2.000E+04 -3.299E-01
   1   16    6     1     6    1.3538E+05 -5.5153E+03   1.4089E+05  0.000E+00  0.000E+00  0.000E+00  4.60506E+01  1.756E-01  2.000E+01  2.000E+04 -2.758E-01
   1   16    7     1     7    1.4089E+05 -5.7612E+03   1.4666E+05  0.000E+00  0.000E+00  0.000E+00  4.55776E+01  1.799E-01  2.000E+01  2.000E+04 -2.881E-01
   1   16    8     1     8    1.4666E+05 -5.9303E+03   1.5259E+05  0.000E+00  0.000E+00  0.000E+00  4.51047E+01  1.842E-01  2.000E+01  2.000E+04 -2.965E-01
   1   16    9     1     9    1.5259E+05 -6.0105E+03   1.5860E+05  0.000E+00  0.000E+00  0.000E+00  4.46318E+01  1.886E-01  2.000E+01  2.000E+04 -3.005E-01
   1   16   10     1    10    1.5860E+05 -6.0046E+03   1.6460E+05  0.000E+00  0.000E+00  0.000E+00  4.41588E+01  1.929E-01  2.000E+01  2.000E+04 -3.002E-01
   1   16   11     1    11    1.6460E+05 -5.9411E+03   1.7054E+05  0.000E+00  0.000E+00  0.000E+00  4.36858E+01  1.972E-01  2.000E+01  2.000E+04 -2.971E-01
   1   16   12     1    12    1.7054E+05 -7.6256E+03   1.7817E+05  0.000E+00  0.000E+00  0.000E+00  4.32133E+01  2.019E-01  2.000E+01  2.000E+04 -3.813E-01
   1   15   13     1    13    1.7817E+05 -7.9972E+03   1.8617E+05  0.000E+00  0.000E+00  0.000E+00  4.27414E+01  2.073E-01  2.000E+01  2.000E+04 -3.999E-01
   1   14   14     1    14    1.8617E+05 -8.2590E+03   1.9442E+05  0.000E+00  0.000E+00  0.000E+00  4.22696E+01  2.128E-01  2.000E+01  2.000E+04 -4.130E-01
   1   13   15     1    15    1.9442E+05 -8.5130E+03   2.0294E+05  0.000E+00  0.000E+00  0.000E+00  4.17979E+01  2.184E-01  2.000E+01  2.000E+04 -4.256E-01
   1   12   16     1    16    2.0294E+05 -9.3274E+03   2.1226E+05  0.000E+00  0.000E+00  0.000E+00  4.13265E+01  2.242E-01  2.000E+01  2.000E+04 -4.664E-01
   1   12   17     1    17    2.1226E+05 -6.5091E+03   2.1877E+05  0.000E+00  0.000E+00  0.000E+00  4.08543E+01  2.293E-01  2.000E+01  2.000E+04 -3.255E-01
   1   12   18     1    18    2.1877E+05 -6.2962E+03   2.2507E+05  0.000E+00  0.000E+00  0.000E+00  4.03811E+01  2.334E-01  2.000E+01  2.000E+04 -3.148E-01
   1   12   19     1    19    2.2507E+05 -7.8692E+03   2.3294E+05  0.000E+00  0.000E+00  0.000E+00  3.99083E+01  2.378E-01  2.000E+01  2.000E+04 -3.935E-01
   1   13   20     1    20    2.3294E+05 -6.3855E+03   2.3932E+05  0.000E+00  0.000E+00  0.000E+00  3.94354E+01  2.422E-01  2.000E+01  2.000E+04 -3.193E-01
   1   14   21     1    21    2.3932E+05 -5.1019E+03   2.4443E+05  0.000E+00  0.000E+00  0.000E+00  3.89617E+01  2.457E-01  2.000E+01  2.000E+04 -2.551E-01
   1   14   22     1    22    2.4443E+05  4.5198E+03   2.3991E+05  0.000E+00  0.000E+00  0.000E+00  3.84846E+01  2.459E-01  2.000E+01  2.000E+04  2.260E-01
   1    9   30     2     1    5.0000E+04 -4.6473E+03   5.4647E+04  0.000E+00  0.000E+00  0.000E+00  4.02441E+01  1.191E-01  2.000E+01  2.000E+04 -2.324E-01
   1    9   29     2     2    5.4647E+04 -4.8063E+03   5.9454E+04  0.000E+00  0.000E+00  0.000E+00  4.00004E+01  1.254E-01  2.000E+01  2.000E+04 -2.403E-01
   1    9   28     2     3    5.9454E+04 -4.8398E+03   6.4293E+04  0.000E+00  0.000E+00  0.000E+00  3.97567E+01  1.317E-01  2.000E+01  2.000E+04 -2.420E-01
   1    9   27     2     4    6.4293E+04 -7.1375E+03   7.1431E+04  0.000E+00  0.000E+00  0.000E+00  3.95142E+01  1.392E-01  2.000E+01  2.000E+04 -3.569E-01
   1   10   26     2     5    7.1431E+04 -6.4759E+03   7.7907E+04  0.000E+00  0.000E+00  0.000E+00  3.92724E+01  1.474E-01  2.000E+01  2.000E+04 -3.238E-01
   1   11   25     2     6    7.7907E+04 -5.9351E+03   8.3842E+04  0.000E+00  0.000E+00  0.000E+00  3.90296E+01  1.546E-01  2.000E+01  2.000E+04 -2.968E-01
   1   12   24     2     7    8.3842E+04 -4.9856E+03   8.8827E+04  0.000E+00  0.000E+00  0.000E+00  3.87858E+01  1.608E-01  2.000E+01  2.000E+04 -2.493E-01
   1   13   23     2     8    8.8827E+04 -3.6167E+03   9.2444E+04  0.000E+00  0.000E+00  0.000E+00  3.85406E+01  1.656E-01  2.000E+01  2.000E+04 -1.808E-01
   1   14   22     2     9    9.2444E+04  6.7202E+02   9.1772E+04  0.000E+00  0.000E+00  0.000E+00  3.82922E+01  1.672E-01  2.000E+01  2.000E+04  3.360E-02
   1   14   22     3     1    3.3168E+05 -9.0908E+03   3.4077E+05  0.000E+00  0.000E+00  0.000E+00  3.78040E+01  2.485E-01  2.000E+01  2.000E+04 -4.545E-01
   1   15   23     3     2    3.4077E+05 -5.0998E+03   3.4587E+05  0.000E+00  0.000E+00  0.000E+00  3.69183E+01  2.516E-01  2.000E+01  2.000E+04 -2.550E-01
   1   15   24     3     3    3.4587E+05 -3.6809E+03   3.4955E+05  0.000E+00  0.000E+00  0.000E+00  3.60313E+01  2.535E-01  2.000E+01  2.000E+04 -1.840E-01
   1   15   25     3     4    3.4955E+05 -3.7017E+03   3.5325E+05  0.000E+00  0.000E+00  0.000E+00  3.51440E+01  2.551E-01  2.000E+01  2.000E+04 -1.851E-01
   1   15   26     3     5    3.5325E+05 -5.1421E+03   3.5839E+05  0.000E+00  0.000E+00  0.000E+00  3.42571E+01  2.571E-01  2.000E+01  2.000E+04 -2.571E-01
   1   16   27     3     6    3.5839E+05 -5.8503E+03   3.6424E+05  0.000E+00  0.000E+00  0.000E+00  3.33705E+01  2.594E-01  2.000E+01  2.000E+04 -2.925E-01
   1   17   28     3     7    3.6424E+05 -5.6273E+03   3.6987E+05  0.000E+00  0.000E+00  0.000E+00  3.24841E+01  2.619E-01  2.000E+01  2.000E+04 -2.814E-01
   1   18   29     3     8    3.6987E+05 -5.2377E+03   3.7511E+05  0.000E+00  0.000E+00  0.000E+00  3.15976E+01  2.642E-01  2.000E+01  2.000E+04 -2.619E-01
   1   18   30     3     9    3.7511E+05 -5.5266E+03   3.8064E+05  0.000E+00  0.000E+00  0.000E+00  3.07110E+01  2.665E-01  2.000E+01  2.000E+04 -2.763E-01



1
              HEAD IN LAYER   1 AT END OF TIME STEP   1 IN STRESS PERIOD    1
  ---------------------------------------------------------------------------

          1      2      3      4      5      6      7      8      9     10
         11     12     13     14     15     16     17     18     19     20
         21     22     23     24     25     26     27     28     29     30
 .........................................................................
   1  ****** ****** ****** ****** ****** ****** ****** ****** ****** ******
      ****** ****** ****** ****** ****** ****** ****** ****** ****** ******
      ****** ****** ****** ****** ****** ****** ****** ****** ****** ******
   2  ****** ****** ****** ****** ****** ****** ****** ****** ****** ******
      ****** ****** ****** ****** ****** ****** ****** ****** ****** ******
      ****** ****** ****** ****** ****** ****** ****** ****** ****** ******
   3  ****** ****** ****** ****** ****** ****** ****** ****** ****** ******
      ****** ****** ****** ****** ****** ****** ****** ****** ****** ******
      ****** ****** ****** ****** ****** ****** ****** ****** ****** ******
   4  ****** ****** ****** ****** ****** ****** ****** ****** ****** ******
      ****** ****** ****** ****** ****** ****** ****** ****** ****** ******
      ****** ****** ****** ****** ****** ****** ****** ****** ****** ******
   5  ****** ****** ****** ****** ****** ****** ****** ****** ****** ******
      ****** ****** ****** ****** ****** ****** ****** ****** ****** ******
      ****** ****** ****** ****** ****** ****** ****** ****** ****** ******
   6  ****** ****** ****** ****** ****** ****** ****** ****** ****** ******
      ****** ****** ****** ****** ****** ****** ****** ****** ****** ******
      ****** ****** ****** ****** ****** ****** ****** ****** ****** ******
   7  ****** ****** ****** ****** ****** ****** ****** ****** ****** ******
      ****** ****** ****** ****** ****** ****** ****** ****** ****** ******
      ****** ****** ****** ****** ****** ****** ****** ****** ****** ******
   8  ****** ****** ****** ****** ****** ****** ****** ****** ****** ******
      ****** ****** ****** ****** ****** ****** ****** ****** ****** ******
      ****** ****** ****** ****** ****** ****** ****** ****** ****** ******
   9  ****** ****** ****** ****** ****** ****** ****** ****** ****** ******
      ****** ****** ****** ****** ****** ****** ****** ****** ****** ******
      ****** ****** ****** ****** ****** ****** ****** ****** ****** ******
  10  ****** ****** ****** ****** ****** ****** ****** ****** ****** ******
      ****** ****** ****** ****** ****** ****** ****** ****** ****** ******
      ****** ****** ****** ****** ****** ****** ****** ****** ****** ******
  11  ****** ****** ****** ****** ****** ****** ****** ****** ****** ******
      ****** ****** ****** ****** ****** ****** ****** ****** ****** ******
      ****** ****** ****** ****** ****** ****** ****** ****** ****** ******
  12  ****** ****** ****** ****** ****** ****** ****** ****** ****** ******
      ****** ****** ****** ****** ****** ****** ****** ****** ****** ******
      ****** ****** ****** ****** ****** ****** ****** ****** ****** ******
  13  ****** ****** ****** ****** ****** ****** ****** ****** ****** ******
      ****** ****** ****** ****** ****** ****** ****** ****** ****** ******
      ****** ****** ****** ****** ****** ****** ****** ****** ****** ******
  14  ****** ****** ****** ****** ****** ****** ****** ****** ****** ******
      ****** ****** ****** ****** ****** ****** ****** ****** ****** ******
      ****** ****** ****** ****** ****** ****** ****** ****** ****** ******
  15  ****** ****** ****** ****** ****** ****** ****** ****** ****** ******
      ****** ****** ****** ****** ****** ****** ****** ****** ****** ******
      ****** ****** ****** ****** ****** ****** ****** ****** ****** ******
  16  ****** ****** ****** ****** ****** ****** ****** ****** ****** ******
      ****** ****** ****** ****** ****** ****** ****** ****** ****** ******
      ****** ****** ****** ****** ****** ****** ****** ****** ****** ******
  17  ****** ****** ****** ****** ****** ****** ****** ****** ****** ******
      ****** ****** ****** ****** ****** ****** ****** ****** ****** ******
      ****** ****** ****** ****** ****** ****** ****** ****** ****** ******
  18  ****** ****** ****** ****** ****** ****** ****** ****** ****** ******
      ****** ****** ****** ****** ****** ****** ****** ****** ****** ******
      ****** ****** ****** ****** ****** ****** ****** ****** ****** ******
  19  ****** ****** ****** ****** ****** ****** ****** ****** ****** ******
      ****** ****** ****** ****** ****** ****** ****** ****** ****** ******
      ****** ****** ****** ****** ****** ****** ****** ****** ****** ******
  20  ****** ****** ****** ****** ****** ****** ****** ****** ****** ******
      ****** ****** ****** ****** ****** ****** ****** ****** ****** ******
      ****** ****** ****** ****** ****** ****** ****** ****** ****** ******
  21  ****** ****** ****** ****** ****** ****** ****** ****** ****** ******
      ****** ****** ****** ****** ****** ****** ****** ****** ****** ******
      ****** ****** ****** ****** ****** ****** ****** ****** ****** ******
  22  ****** ****** ****** ****** ****** ****** ****** ****** ****** ******
      ****** ****** ****** ****** ****** ****** ****** ****** ****** ******
      ****** ****** ****** ****** ****** ****** ****** ****** ****** ******
  23  ****** ****** ****** ****** ****** ****** ****** ****** ****** ******
      ****** ****** ****** ****** ****** ****** ****** ****** ****** ******
      ****** ****** ****** ****** ****** ****** ****** ****** ****** ******
  24  ****** ****** ****** ****** ****** ****** ****** ****** ****** ******
      ****** ****** ****** ****** ****** ****** ****** ****** ****** ******
      ****** ****** ****** ****** ****** ****** ****** ****** ****** ******
  25  ****** ****** ****** ****** ****** ****** ****** ****** ****** ******
      ****** ****** ****** ****** ****** ****** ****** ****** ****** ******
      ****** ****** ****** ****** ****** ****** ****** ****** ****** ******

 HEAD WILL BE SAVED ON UNIT   51 AT END OF TIME STEP    1, STRESS PERIOD    1
1
  VOLUMETRIC BUDGET FOR ENTIRE MODEL AT END OF TIME STEP    1, STRESS PERIOD   1
  ------------------------------------------------------------------------------

     CUMULATIVE VOLUMES      L**3       RATES FOR THIS TIME STEP      L**3/T
     ------------------                 ------------------------

           IN:                                      IN:
           ---                                      ---
             STORAGE =    18653311.7362               STORAGE =      202753.3884
       CONSTANT HEAD =    13560198.1944         CONSTANT HEAD =      147393.4586
               WELLS =           0.0000                 WELLS =           0.0000
            RECHARGE =     1269600.0000              RECHARGE =       13800.0000
      STREAM LEAKAGE =      477647.2258        STREAM LEAKAGE =        5191.8177

            TOTAL IN =    33960757.1563              TOTAL IN =      369138.6647

          OUT:                                     OUT:
          ----                                     ----
             STORAGE =           0.0000               STORAGE =           0.0000
       CONSTANT HEAD =           0.0000         CONSTANT HEAD =           0.0000
               WELLS =    12264570.6762                 WELLS =      133310.5508
            RECHARGE =           0.0000              RECHARGE =           0.0000
      STREAM LEAKAGE =    21696186.6219        STREAM LEAKAGE =      235828.1155

           TOTAL OUT =    33960757.2981             TOTAL OUT =      369138.6663

            IN - OUT =          -0.1417              IN - OUT =      -1.5404E-03

 PERCENT DISCREPANCY =          -0.00     PERCENT DISCREPANCY =          -0.00






         TIME SUMMARY AT END OF TIME STEP    1 IN STRESS PERIOD    1
                    SECONDS     MINUTES      HOURS       DAYS        YEARS
                    -----------------------------------------------------------
   TIME STEP LENGTH 7.94880E+06 1.32480E+05  2208.0      92.000     0.25188    
 STRESS PERIOD TIME 7.94880E+06 1.32480E+05  2208.0      92.000     0.25188    
         TOTAL TIME 7.94880E+06 1.32480E+05  2208.0      92.000     0.25188    
1
1
                            STRESS PERIOD NO.    2, LENGTH =   91.00000    
                            -----------------------------------------------

                              NUMBER OF TIME STEPS =     1

                               MULTIPLIER FOR DELT =     1.500

                            INITIAL TIME STEP SIZE =   91.00000    

 WELL NO.  LAYER   ROW   COL   STRESS RATE         
 --------------------------------------------------
      1      1     23     20     -0.3361E+05
      2      1     23      4     -0.3381E+05
      3      1      5     26     -0.3082E+05
      4      1     21     27     -0.3506E+05

      4 WELLS

                 RECHARGE =  2.000000E-03

 REUSING STREAM SEGMENT DATA FROM LAST STRESS PERIOD
 
 SOLVING FOR HEAD 


     7 CALLS TO PCG ROUTINE FOR TIME STEP   1 IN STRESS PERIOD    2
    27 TOTAL ITERATIONS

 OUTPUT CONTROL FOR STRESS PERIOD    2   TIME STEP    1
    SAVE BUDGET
    SAVE HEAD FOR ALL LAYERS
    PRINT HEAD FOR ALL LAYERS
 UBDSV2 SAVING "STREAMFLOW OUT  " ON UNIT  50 AT TIME STEP  1, STRESS PERIOD   2



 STREAM LISTING     PERIOD      2   STEP        1

 LAYER ROW COL. STREAM  RCH.  FLOW INTO     FLOW TO   FLOW OUT OF   OVRLND.     DIRECT     STREAM       STREAM     STREAM     STREAM   STREAMBED  STREAMBED
                SEG.NO.  NO.  STRM. RCH.    AQUIFER    STRM. RCH.    RUNOFF     PRECIP       ET          HEAD       DEPTH      WIDTH   CONDCTNC.   GRADIENT

   1   13    1     1     1    1.0000E+05 -3.5778E+03   1.0358E+05  0.000E+00  0.000E+00  0.000E+00  4.84076E+01  1.462E-01  2.000E+01  2.000E+04 -1.789E-01
   1   13    2     1     2    1.0358E+05 -5.9874E+03   1.0957E+05  0.000E+00  0.000E+00  0.000E+00  4.79344E+01  1.503E-01  2.000E+01  2.000E+04 -2.994E-01
   1   14    3     1     3    1.0957E+05 -4.6393E+03   1.1420E+05  0.000E+00  0.000E+00  0.000E+00  4.74616E+01  1.547E-01  2.000E+01  2.000E+04 -2.320E-01
   1   15    4     1     4    1.1420E+05 -4.1989E+03   1.1840E+05  0.000E+00  0.000E+00  0.000E+00  4.69879E+01  1.584E-01  2.000E+01  2.000E+04 -2.099E-01
   1   16    5     1     5    1.1840E+05 -3.8608E+03   1.2226E+05  0.000E+00  0.000E+00  0.000E+00  4.65139E+01  1.616E-01  2.000E+01  2.000E+04 -1.930E-01
   1   16    6     1     6    1.2226E+05 -3.3988E+03   1.2566E+05  0.000E+00  0.000E+00  0.000E+00  4.60396E+01  1.646E-01  2.000E+01  2.000E+04 -1.699E-01
   1   16    7     1     7    1.2566E+05 -3.6485E+03   1.2931E+05  0.000E+00  0.000E+00  0.000E+00  4.55651E+01  1.673E-01  2.000E+01  2.000E+04 -1.824E-01
   1   16    8     1     8    1.2931E+05 -3.8231E+03   1.3313E+05  0.000E+00  0.000E+00  0.000E+00  4.50907E+01  1.703E-01  2.000E+01  2.000E+04 -1.912E-01
   1   16    9     1     9    1.3313E+05 -3.9159E+03   1.3705E+05  0.000E+00  0.000E+00  0.000E+00  4.46164E+01  1.733E-01  2.000E+01  2.000E+04 -1.958E-01
   1   16   10     1    10    1.3705E+05 -3.9289E+03   1.4098E+05  0.000E+00  0.000E+00  0.000E+00  4.41422E+01  1.763E-01  2.000E+01  2.000E+04 -1.964E-01
   1   16   11     1    11    1.4098E+05 -3.8855E+03   1.4486E+05  0.000E+00  0.000E+00  0.000E+00  4.36679E+01  1.792E-01  2.000E+01  2.000E+04 -1.943E-01
   1   16   12     1    12    1.4486E+05 -5.0101E+03   1.4988E+05  0.000E+00  0.000E+00  0.000E+00  4.31939E+01  1.825E-01  2.000E+01  2.000E+04 -2.505E-01
   1   15   13     1    13    1.4988E+05 -4.9741E+03   1.5485E+05  0.000E+00  0.000E+00  0.000E+00  4.27203E+01  1.862E-01  2.000E+01  2.000E+04 -2.487E-01
   1   14   14     1    14    1.5485E+05 -5.1328E+03   1.5998E+05  0.000E+00  0.000E+00  0.000E+00  4.22467E+01  1.899E-01  2.000E+01  2.000E+04 -2.566E-01
   1   13   15     1    15    1.5998E+05 -5.4469E+03   1.6543E+05  0.000E+00  0.000E+00  0.000E+00  4.17733E+01  1.937E-01  2.000E+01  2.000E+04 -2.723E-01
   1   12   16     1    16    1.6543E+05 -6.6388E+03   1.7207E+05  0.000E+00  0.000E+00  0.000E+00  4.13003E+01  1.980E-01  2.000E+01  2.000E+04 -3.319E-01
   1   12   17     1    17    1.7207E+05 -4.3097E+03   1.7638E+05  0.000E+00  0.000E+00  0.000E+00  4.08268E+01  2.018E-01  2.000E+01  2.000E+04 -2.155E-01
   1   12   18     1    18    1.7638E+05 -4.0817E+03   1.8046E+05  0.000E+00  0.000E+00  0.000E+00  4.03525E+01  2.047E-01  2.000E+01  2.000E+04 -2.041E-01
   1   12   19     1    19    1.8046E+05 -5.1645E+03   1.8562E+05  0.000E+00  0.000E+00  0.000E+00  3.98784E+01  2.079E-01  2.000E+01  2.000E+04 -2.582E-01
   1   13   20     1    20    1.8562E+05 -3.4929E+03   1.8912E+05  0.000E+00  0.000E+00  0.000E+00  3.94040E+01  2.108E-01  2.000E+01  2.000E+04 -1.746E-01
   1   14   21     1    21    1.8912E+05 -2.4649E+03   1.9158E+05  0.000E+00  0.000E+00  0.000E+00  3.89287E+01  2.128E-01  2.000E+01  2.000E+04 -1.232E-01
   1   14   22     1    22    1.9158E+05  5.1455E+03   1.8644E+05  0.000E+00  0.000E+00  0.000E+00  3.84506E+01  2.119E-01  2.000E+01  2.000E+04  2.573E-01
   1    9   30     2     1    5.0000E+04 -2.2035E+03   5.2203E+04  0.000E+00  0.000E+00  0.000E+00  4.02424E+01  1.174E-01  2.000E+01  2.000E+04 -1.102E-01
   1    9   29     2     2    5.2203E+04 -2.3653E+03   5.4569E+04  0.000E+00  0.000E+00  0.000E+00  3.99955E+01  1.205E-01  2.000E+01  2.000E+04 -1.183E-01
   1    9   28     2     3    5.4569E+04 -2.4017E+03   5.6970E+04  0.000E+00  0.000E+00  0.000E+00  3.97487E+01  1.237E-01  2.000E+01  2.000E+04 -1.201E-01
   1    9   27     2     4    5.6970E+04 -4.0317E+03   6.1002E+04  0.000E+00  0.000E+00  0.000E+00  3.95029E+01  1.279E-01  2.000E+01  2.000E+04 -2.016E-01
   1   10   26     2     5    6.1002E+04 -3.1891E+03   6.4191E+04  0.000E+00  0.000E+00  0.000E+00  3.92576E+01  1.326E-01  2.000E+01  2.000E+04 -1.595E-01
   1   11   25     2     6    6.4191E+04 -2.8184E+03   6.7010E+04  0.000E+00  0.000E+00  0.000E+00  3.90114E+01  1.364E-01  2.000E+01  2.000E+04 -1.409E-01
   1   12   24     2     7    6.7010E+04 -2.2330E+03   6.9243E+04  0.000E+00  0.000E+00  0.000E+00  3.87645E+01  1.395E-01  2.000E+01  2.000E+04 -1.117E-01
   1   13   23     2     8    6.9243E+04 -1.4380E+03   7.0681E+04  0.000E+00  0.000E+00  0.000E+00  3.85167E+01  1.417E-01  2.000E+01  2.000E+04 -7.190E-02
   1   14   22     2     9    7.0681E+04  1.4683E+03   6.9212E+04  0.000E+00  0.000E+00  0.000E+00  3.82667E+01  1.417E-01  2.000E+01  2.000E+04  7.342E-02
   1   14   22     3     1    2.5565E+05 -8.4969E+03   2.6415E+05  0.000E+00  0.000E+00  0.000E+00  3.77685E+01  2.129E-01  2.000E+01  2.000E+04 -4.248E-01
   1   15   23     3     2    2.6415E+05 -2.5526E+03   2.6670E+05  0.000E+00  0.000E+00  0.000E+00  3.68823E+01  2.156E-01  2.000E+01  2.000E+04 -1.276E-01
   1   15   24     3     3    2.6670E+05 -1.6803E+03   2.6838E+05  0.000E+00  0.000E+00  0.000E+00  3.59944E+01  2.166E-01  2.000E+01  2.000E+04 -8.402E-02
   1   15   25     3     4    2.6838E+05 -1.6029E+03   2.6998E+05  0.000E+00  0.000E+00  0.000E+00  3.51063E+01  2.174E-01  2.000E+01  2.000E+04 -8.015E-02
   1   15   26     3     5    2.6998E+05 -2.3352E+03   2.7232E+05  0.000E+00  0.000E+00  0.000E+00  3.42184E+01  2.184E-01  2.000E+01  2.000E+04 -1.168E-01
   1   16   27     3     6    2.7232E+05 -2.3427E+03   2.7466E+05  0.000E+00  0.000E+00  0.000E+00  3.33306E+01  2.195E-01  2.000E+01  2.000E+04 -1.171E-01
   1   17   28     3     7    2.7466E+05 -1.9689E+03   2.7663E+05  0.000E+00  0.000E+00  0.000E+00  3.24428E+01  2.206E-01  2.000E+01  2.000E+04 -9.845E-02
   1   18   29     3     8    2.7663E+05 -1.7985E+03   2.7843E+05  0.000E+00  0.000E+00  0.000E+00  3.15548E+01  2.215E-01  2.000E+01  2.000E+04 -8.992E-02
   1   18   30     3     9    2.7843E+05 -2.8914E+03   2.8132E+05  0.000E+00  0.000E+00  0.000E+00  3.06670E+01  2.226E-01  2.000E+01  2.000E+04 -1.446E-01



1
              HEAD IN LAYER   1 AT END OF TIME STEP   1 IN STRESS PERIOD    2
  ---------------------------------------------------------------------------

          1      2      3      4      5      6      7      8      9     10
         11     12     13     14     15     16     17     18     19     20
         21     22     23     24     25     26     27     28     29     30
 .........................................................................
   1  ****** ****** ****** ****** ****** ****** ****** ****** ****** ******
      ****** ****** ****** ****** ****** ****** ****** ****** ****** ******
      ****** ****** ****** ****** ****** ****** ****** ****** ****** ******
   2  ****** ****** ****** ****** ****** ****** ****** ****** ****** ******
      ****** ****** ****** ****** ****** ****** ****** ****** ****** ******
      ****** ****** ****** ****** ****** ****** ****** ****** ****** ******
   3  ****** ****** ****** ****** ****** ****** ****** ****** ****** ******
      ****** ****** ****** ****** ****** ****** ****** ****** ****** ******
      ****** ****** ****** ****** ****** ****** ****** ****** ****** ******
   4  ****** ****** ****** ****** ****** ****** ****** ****** ****** ******
      ****** ****** ****** ****** ****** ****** ****** ****** ****** ******
      ****** ****** ****** ****** ****** ****** ****** ****** ****** ******
   5  ****** ****** ****** ****** ****** ****** ****** ****** ****** ******
      ****** ****** ****** ****** ****** ****** ****** ****** ****** ******
      ****** ****** ****** ****** ****** ****** ****** ****** ****** ******
   6  ****** ****** ****** ****** ****** ****** ****** ****** ****** ******
      ****** ****** ****** ****** ****** ****** ****** ****** ****** ******
      ****** ****** ****** ****** ****** ****** ****** ****** ****** ******
   7  ****** ****** ****** ****** ****** ****** ****** ****** ****** ******
      ****** ****** ****** ****** ****** ****** ****** ****** ****** ******
      ****** ****** ****** ****** ****** ****** ****** ****** ****** ******
   8  ****** ****** ****** ****** ****** ****** ****** ****** ****** ******
      ****** ****** ****** ****** ****** ****** ****** ****** ****** ******
      ****** ****** ****** ****** ****** ****** ****** ****** ****** ******
   9  ****** ****** ****** ****** ****** ****** ****** ****** ****** ******
      ****** ****** ****** ****** ****** ****** ****** ****** ****** ******
      ****** ****** ****** ****** ****** ****** ****** ****** ****** ******
  10  ****** ****** ****** ****** ****** ****** ****** ****** ****** ******
      ****** ****** ****** ****** ****** ****** ****** ****** ****** ******
      ****** ****** ****** ****** ****** ****** ****** ****** ****** ******
  11  ****** ****** ****** ****** ****** ****** ****** ****** ****** ******
      ****** ****** ****** ****** ****** ****** ****** ****** ****** ******
      ****** ****** ****** ****** ****** ****** ****** ****** ****** ******
  12  ****** ****** ****** ****** ****** ****** ****** ****** ****** ******
      ****** ****** ****** ****** ****** ****** ****** ****** ****** ******
      ****** ****** ****** ****** ****** ****** ****** ****** ****** ******
  13  ****** ****** ****** ****** ****** ****** ****** ****** ****** ******
      ****** ****** ****** ****** ****** ****** ****** ****** ****** ******
      ****** ****** ****** ****** ****** ****** ****** ****** ****** ******
  14  ****** ****** ****** ****** ****** ****** ****** ****** ****** ******
      ****** ****** ****** ****** ****** ****** ****** ****** ****** ******
      ****** ****** ****** ****** ****** ****** ****** ****** ****** ******
  15  ****** ****** ****** ****** ****** ****** ****** ****** ****** ******
      ****** ****** ****** ****** ****** ****** ****** ****** ****** ******
      ****** ****** ****** ****** ****** ****** ****** ****** ****** ******
  16  ****** ****** ****** ****** ****** ****** ****** ****** ****** ******
      ****** ****** ****** ****** ****** ****** ****** ****** ****** ******
      ****** ****** ****** ****** ****** ****** ****** ****** ****** ******
  17  ****** ****** ****** ****** ****** ****** ****** ****** ****** ******
      ****** ****** ****** ****** ****** ****** ****** ****** ****** ******
      ****** ****** ****** ****** ****** ****** ****** ****** ****** ******
  18  ****** ****** ****** ****** ****** ****** ****** ****** ****** ******
      ****** ****** ****** ****** ****** ****** ****** ****** ****** ******
      ****** ****** ****** ****** ****** ****** ****** ****** ****** ******
  19  ****** ****** ****** ****** ****** ****** ****** ****** ****** ******
      ****** ****** ****** ****** ****** ****** ****** ****** ****** ******
      ****** ****** ****** ****** ****** ****** ****** ****** ****** ******
  20  ****** ****** ****** ****** ****** ****** ****** ****** ****** ******
      ****** ****** ****** ****** ****** ****** ****** ****** ****** ******
      ****** ****** ****** ****** ****** ****** ****** ****** ****** ******
  21  ****** ****** ****** ****** ****** ****** ****** ****** ****** ******
      ****** ****** ****** ****** ****** ****** ****** ****** ****** ******
      ****** ****** ****** ****** ****** ****** ****** ****** ****** ******
  22  ****** ****** ****** ****** ****** ****** ****** ****** ****** ******
      ****** ****** ****** ****** ****** ****** ****** ****** ****** ******
      ****** ****** ****** ****** ****** ****** ****** ****** ****** ******
  23  ****** ****** ****** ****** ****** ****** ****** ****** ****** ******
      ****** ****** ****** ****** ****** ****** ****** ****** ****** ******
      ****** ****** ****** ****** ****** ****** ****** ****** ****** ******
  24  ****** ****** ****** ****** ****** ****** ****** ****** ****** ******
      ****** ****** ****** ****** ****** ****** ****** ****** ****** ******
      ****** ****** ****** ****** ****** ****** ****** ****** ****** ******
  25  ****** ****** ****** ****** ****** ****** ****** ****** ****** ******
      ****** ****** ****** ****** ****** ****** ****** ****** ****** ******
      ****** ****** ****** ****** ****** ****** ****** ****** ****** ******

 HEAD WILL BE SAVED ON UNIT   51 AT END OF TIME STEP    1, STRESS PERIOD    2
1
  VOLUMETRIC BUDGET FOR ENTIRE MODEL AT END OF TIME STEP    1, STRESS PERIOD   2
  ------------------------------------------------------------------------------

     CUMULATIVE VOLUMES      L**3       RATES FOR THIS TIME STEP      L**3/T
     ------------------                 ------------------------

           IN:                                      IN:
           ---                                      ---
             STORAGE =    22025477.3298               STORAGE =       37056.7648
       CONSTANT HEAD =    29245982.1377         CONSTANT HEAD =      172371.2521
               WELLS =           0.0000                 WELLS =           0.0000
            RECHARGE =     6292800.0000              RECHARGE =       55200.0000
      STREAM LEAKAGE =     1079503.4798        STREAM LEAKAGE =        6613.8050

            TOTAL IN =    58643762.9472              TOTAL IN =      271241.8219

          OUT:                                     OUT:
          ----                                     ----
             STORAGE =           0.0000               STORAGE =           0.0000
       CONSTANT HEAD =           0.0000         CONSTANT HEAD =           0.0000
               WELLS =    24395830.8015                 WELLS =      133310.5508
            RECHARGE =           0.0000              RECHARGE =           0.0000
      STREAM LEAKAGE =    34247932.7728        STREAM LEAKAGE =      137931.2764

           TOTAL OUT =    58643763.5743             TOTAL OUT =      271241.8272

            IN - OUT =          -0.6270              IN - OUT =      -5.3331E-03

 PERCENT DISCREPANCY =          -0.00     PERCENT DISCREPANCY =          -0.00






         TIME SUMMARY AT END OF TIME STEP    1 IN STRESS PERIOD    2
                    SECONDS     MINUTES      HOURS       DAYS        YEARS
                    -----------------------------------------------------------
   TIME STEP LENGTH 7.86240E+06 1.31040E+05  2184.0      91.000     0.24914    
 STRESS PERIOD TIME 7.86240E+06 1.31040E+05  2184.0      91.000     0.24914    
         TOTAL TIME 1.58112E+07 2.63520E+05  4392.0      183.00     0.50103    
1
1
                            STRESS PERIOD NO.    3, LENGTH =   91.00000    
                            -----------------------------------------------

                              NUMBER OF TIME STEPS =     1

                               MULTIPLIER FOR DELT =     1.500

                            INITIAL TIME STEP SIZE =   91.00000    

 WELL NO.  LAYER   ROW   COL   STRESS RATE         
 --------------------------------------------------
      1      1     23     20     -0.3361E+05
      2      1     23      4     -0.3381E+05
      3      1      5     26     -0.3082E+05
      4      1     21     27     -0.3506E+05

      4 WELLS

                 RECHARGE =   0.00000    

 REUSING STREAM SEGMENT DATA FROM LAST STRESS PERIOD
 
 SOLVING FOR HEAD 


     7 CALLS TO PCG ROUTINE FOR TIME STEP   1 IN STRESS PERIOD    3
    27 TOTAL ITERATIONS

 OUTPUT CONTROL FOR STRESS PERIOD    3   TIME STEP    1
    SAVE BUDGET
    SAVE HEAD FOR ALL LAYERS
    PRINT HEAD FOR ALL LAYERS
 UBDSV2 SAVING "STREAMFLOW OUT  " ON UNIT  50 AT TIME STEP  1, STRESS PERIOD   3



 STREAM LISTING     PERIOD      3   STEP        1

 LAYER ROW COL. STREAM  RCH.  FLOW INTO     FLOW TO   FLOW OUT OF   OVRLND.     DIRECT     STREAM       STREAM     STREAM     STREAM   STREAMBED  STREAMBED
                SEG.NO.  NO.  STRM. RCH.    AQUIFER    STRM. RCH.    RUNOFF     PRECIP       ET          HEAD       DEPTH      WIDTH   CONDCTNC.   GRADIENT

   1   13    1     1     1    1.0000E+05 -2.6292E+03   1.0263E+05  0.000E+00  0.000E+00  0.000E+00  4.84072E+01  1.458E-01  2.000E+01  2.000E+04 -1.315E-01
   1   13    2     1     2    1.0263E+05 -4.7103E+03   1.0734E+05  0.000E+00  0.000E+00  0.000E+00  4.79330E+01  1.489E-01  2.000E+01  2.000E+04 -2.355E-01
   1   14    3     1     3    1.0734E+05 -3.3302E+03   1.1067E+05  0.000E+00  0.000E+00  0.000E+00  4.74592E+01  1.523E-01  2.000E+01  2.000E+04 -1.665E-01
   1   15    4     1     4    1.1067E+05 -2.8842E+03   1.1355E+05  0.000E+00  0.000E+00  0.000E+00  4.69845E+01  1.549E-01  2.000E+01  2.000E+04 -1.442E-01
   1   16    5     1     5    1.1355E+05 -2.6188E+03   1.1617E+05  0.000E+00  0.000E+00  0.000E+00  4.65095E+01  1.572E-01  2.000E+01  2.000E+04 -1.309E-01
   1   16    6     1     6    1.1617E+05 -2.4549E+03   1.1863E+05  0.000E+00  0.000E+00  0.000E+00  4.60343E+01  1.593E-01  2.000E+01  2.000E+04 -1.227E-01
   1   16    7     1     7    1.1863E+05 -2.6956E+03   1.2132E+05  0.000E+00  0.000E+00  0.000E+00  4.55591E+01  1.614E-01  2.000E+01  2.000E+04 -1.348E-01
   1   16    8     1     8    1.2132E+05 -2.8649E+03   1.2419E+05  0.000E+00  0.000E+00  0.000E+00  4.50840E+01  1.636E-01  2.000E+01  2.000E+04 -1.432E-01
   1   16    9     1     9    1.2419E+05 -2.9610E+03   1.2715E+05  0.000E+00  0.000E+00  0.000E+00  4.46091E+01  1.659E-01  2.000E+01  2.000E+04 -1.480E-01
   1   16   10     1    10    1.2715E+05 -2.9848E+03   1.3013E+05  0.000E+00  0.000E+00  0.000E+00  4.41342E+01  1.682E-01  2.000E+01  2.000E+04 -1.492E-01
   1   16   11     1    11    1.3013E+05 -2.9532E+03   1.3309E+05  0.000E+00  0.000E+00  0.000E+00  4.36592E+01  1.706E-01  2.000E+01  2.000E+04 -1.477E-01
   1   16   12     1    12    1.3309E+05 -3.7658E+03   1.3685E+05  0.000E+00  0.000E+00  0.000E+00  4.31845E+01  1.732E-01  2.000E+01  2.000E+04 -1.883E-01
   1   15   13     1    13    1.3685E+05 -3.6173E+03   1.4047E+05  0.000E+00  0.000E+00  0.000E+00  4.27101E+01  1.760E-01  2.000E+01  2.000E+04 -1.809E-01
   1   14   14     1    14    1.4047E+05 -3.7438E+03   1.4421E+05  0.000E+00  0.000E+00  0.000E+00  4.22356E+01  1.788E-01  2.000E+01  2.000E+04 -1.872E-01
   1   13   15     1    15    1.4421E+05 -4.0901E+03   1.4830E+05  0.000E+00  0.000E+00  0.000E+00  4.17613E+01  1.817E-01  2.000E+01  2.000E+04 -2.045E-01
   1   12   16     1    16    1.4830E+05 -5.3413E+03   1.5365E+05  0.000E+00  0.000E+00  0.000E+00  4.12875E+01  1.852E-01  2.000E+01  2.000E+04 -2.671E-01
   1   12   17     1    17    1.5365E+05 -3.3568E+03   1.5700E+05  0.000E+00  0.000E+00  0.000E+00  4.08134E+01  1.884E-01  2.000E+01  2.000E+04 -1.678E-01
   1   12   18     1    18    1.5700E+05 -3.1427E+03   1.6014E+05  0.000E+00  0.000E+00  0.000E+00  4.03385E+01  1.907E-01  2.000E+01  2.000E+04 -1.571E-01
   1   12   19     1    19    1.6014E+05 -4.0117E+03   1.6416E+05  0.000E+00  0.000E+00  0.000E+00  3.98638E+01  1.933E-01  2.000E+01  2.000E+04 -2.006E-01
   1   13   20     1    20    1.6416E+05 -2.3762E+03   1.6653E+05  0.000E+00  0.000E+00  0.000E+00  3.93888E+01  1.956E-01  2.000E+01  2.000E+04 -1.188E-01
   1   14   21     1    21    1.6653E+05 -1.3830E+03   1.6792E+05  0.000E+00  0.000E+00  0.000E+00  3.89128E+01  1.969E-01  2.000E+01  2.000E+04 -6.915E-02
   1   14   22     1    22    1.6792E+05  5.3316E+03   1.6258E+05  0.000E+00  0.000E+00  0.000E+00  3.84342E+01  1.955E-01  2.000E+01  2.000E+04  2.666E-01
   1    9   30     2     1    5.0000E+04 -1.3489E+03   5.1349E+04  0.000E+00  0.000E+00  0.000E+00  4.02418E+01  1.168E-01  2.000E+01  2.000E+04 -6.744E-02
   1    9   29     2     2    5.1349E+04 -1.5176E+03   5.2866E+04  0.000E+00  0.000E+00  0.000E+00  3.99938E+01  1.188E-01  2.000E+01  2.000E+04 -7.588E-02
   1    9   28     2     3    5.2866E+04 -1.5568E+03   5.4423E+04  0.000E+00  0.000E+00  0.000E+00  3.97459E+01  1.209E-01  2.000E+01  2.000E+04 -7.784E-02
   1    9   27     2     4    5.4423E+04 -2.8569E+03   5.7280E+04  0.000E+00  0.000E+00  0.000E+00  3.94988E+01  1.238E-01  2.000E+01  2.000E+04 -1.428E-01
   1   10   26     2     5    5.7280E+04 -2.0143E+03   5.9294E+04  0.000E+00  0.000E+00  0.000E+00  3.92520E+01  1.270E-01  2.000E+01  2.000E+04 -1.007E-01
   1   11   25     2     6    5.9294E+04 -1.7222E+03   6.1017E+04  0.000E+00  0.000E+00  0.000E+00  3.90045E+01  1.295E-01  2.000E+01  2.000E+04 -8.611E-02
   1   12   24     2     7    6.1017E+04 -1.3047E+03   6.2321E+04  0.000E+00  0.000E+00  0.000E+00  3.87564E+01  1.314E-01  2.000E+01  2.000E+04 -6.523E-02
   1   13   23     2     8    6.2321E+04 -7.5867E+02   6.3080E+04  0.000E+00  0.000E+00  0.000E+00  3.85077E+01  1.327E-01  2.000E+01  2.000E+04 -3.793E-02
   1   14   22     2     9    6.3080E+04  1.7896E+03   6.1290E+04  0.000E+00  0.000E+00  0.000E+00  3.82571E+01  1.321E-01  2.000E+01  2.000E+04  8.948E-02
   1   14   22     3     1    2.2387E+05 -8.3040E+03   2.3218E+05  0.000E+00  0.000E+00  0.000E+00  3.77524E+01  1.968E-01  2.000E+01  2.000E+04 -4.152E-01
   1   15   23     3     2    2.3218E+05 -1.5179E+03   2.3370E+05  0.000E+00  0.000E+00  0.000E+00  3.68660E+01  1.994E-01  2.000E+01  2.000E+04 -7.589E-02
   1   15   24     3     3    2.3370E+05 -9.8539E+02   2.3468E+05  0.000E+00  0.000E+00  0.000E+00  3.59778E+01  2.000E-01  2.000E+01  2.000E+04 -4.927E-02
   1   15   25     3     4    2.3468E+05 -9.2376E+02   2.3561E+05  0.000E+00  0.000E+00  0.000E+00  3.50894E+01  2.005E-01  2.000E+01  2.000E+04 -4.619E-02
   1   15   26     3     5    2.3561E+05 -1.4589E+03   2.3706E+05  0.000E+00  0.000E+00  0.000E+00  3.42011E+01  2.011E-01  2.000E+01  2.000E+04 -7.295E-02
   1   16   27     3     6    2.3706E+05 -1.1754E+03   2.3824E+05  0.000E+00  0.000E+00  0.000E+00  3.33129E+01  2.018E-01  2.000E+01  2.000E+04 -5.877E-02
   1   17   28     3     7    2.3824E+05 -7.5519E+02   2.3900E+05  0.000E+00  0.000E+00  0.000E+00  3.24245E+01  2.023E-01  2.000E+01  2.000E+04 -3.776E-02
   1   18   29     3     8    2.3900E+05 -6.2096E+02   2.3962E+05  0.000E+00  0.000E+00  0.000E+00  3.15359E+01  2.026E-01  2.000E+01  2.000E+04 -3.105E-02
   1   18   30     3     9    2.3962E+05 -2.0513E+03   2.4167E+05  0.000E+00  0.000E+00  0.000E+00  3.06477E+01  2.033E-01  2.000E+01  2.000E+04 -1.026E-01



1
              HEAD IN LAYER   1 AT END OF TIME STEP   1 IN STRESS PERIOD    3
  ---------------------------------------------------------------------------

          1      2      3      4      5      6      7      8      9     10
         11     12     13     14     15     16     17     18     19     20
         21     22     23     24     25     26     27     28     29     30
 .........................................................................
   1  ****** ****** ****** ****** ****** ****** ****** ****** ****** ******
      ****** ****** ****** ****** ****** ****** ****** ****** ****** ******
      ****** ****** ****** ****** ****** ****** ****** ****** ****** ******
   2  ****** ****** ****** ****** ****** ****** ****** ****** ****** ******
      ****** ****** ****** ****** ****** ****** ****** ****** ****** ******
      ****** ****** ****** ****** ****** ****** ****** ****** ****** ******
   3  ****** ****** ****** ****** ****** ****** ****** ****** ****** ******
      ****** ****** ****** ****** ****** ****** ****** ****** ****** ******
      ****** ****** ****** ****** ****** ****** ****** ****** ****** ******
   4  ****** ****** ****** ****** ****** ****** ****** ****** ****** ******
      ****** ****** ****** ****** ****** ****** ****** ****** ****** ******
      ****** ****** ****** ****** ****** ****** ****** ****** ****** ******
   5  ****** ****** ****** ****** ****** ****** ****** ****** ****** ******
      ****** ****** ****** ****** ****** ****** ****** ****** ****** ******
      ****** ****** ****** ****** ****** ****** ****** ****** ****** ******
   6  ****** ****** ****** ****** ****** ****** ****** ****** ****** ******
      ****** ****** ****** ****** ****** ****** ****** ****** ****** ******
      ****** ****** ****** ****** ****** ****** ****** ****** ****** ******
   7  ****** ****** ****** ****** ****** ****** ****** ****** ****** ******
      ****** ****** ****** ****** ****** ****** ****** ****** ****** ******
      ****** ****** ****** ****** ****** ****** ****** ****** ****** ******
   8  ****** ****** ****** ****** ****** ****** ****** ****** ****** ******
      ****** ****** ****** ****** ****** ****** ****** ****** ****** ******
      ****** ****** ****** ****** ****** ****** ****** ****** ****** ******
   9  ****** ****** ****** ****** ****** ****** ****** ****** ****** ******
      ****** ****** ****** ****** ****** ****** ****** ****** ****** ******
      ****** ****** ****** ****** ****** ****** ****** ****** ****** ******
  10  ****** ****** ****** ****** ****** ****** ****** ****** ****** ******
      ****** ****** ****** ****** ****** ****** ****** ****** ****** ******
      ****** ****** ****** ****** ****** ****** ****** ****** ****** ******
  11  ****** ****** ****** ****** ****** ****** ****** ****** ****** ******
      ****** ****** ****** ****** ****** ****** ****** ****** ****** ******
      ****** ****** ****** ****** ****** ****** ****** ****** ****** ******
  12  ****** ****** ****** ****** ****** ****** ****** ****** ****** ******
      ****** ****** ****** ****** ****** ****** ****** ****** ****** ******
      ****** ****** ****** ****** ****** ****** ****** ****** ****** ******
  13  ****** ****** ****** ****** ****** ****** ****** ****** ****** ******
      ****** ****** ****** ****** ****** ****** ****** ****** ****** ******
      ****** ****** ****** ****** ****** ****** ****** ****** ****** ******
  14  ****** ****** ****** ****** ****** ****** ****** ****** ****** ******
      ****** ****** ****** ****** ****** ****** ****** ****** ****** ******
      ****** ****** ****** ****** ****** ****** ****** ****** ****** ******
  15  ****** ****** ****** ****** ****** ****** ****** ****** ****** ******
      ****** ****** ****** ****** ****** ****** ****** ****** ****** ******
      ****** ****** ****** ****** ****** ****** ****** ****** ****** ******
  16  ****** ****** ****** ****** ****** ****** ****** ****** ****** ******
      ****** ****** ****** ****** ****** ****** ****** ****** ****** ******
      ****** ****** ****** ****** ****** ****** ****** ****** ****** ******
  17  ****** ****** ****** ****** ****** ****** ****** ****** ****** ******
      ****** ****** ****** ****** ****** ****** ****** ****** ****** ******
      ****** ****** ****** ****** ****** ****** ****** ****** ****** ******
  18  ****** ****** ****** ****** ****** ****** ****** ****** ****** ******
      ****** ****** ****** ****** ****** ****** ****** ****** ****** ******
      ****** ****** ****** ****** ****** ****** ****** ****** ****** ******
  19  ****** ****** ****** ****** ****** ****** ****** ****** ****** ******
      ****** ****** ****** ****** ****** ****** ****** ****** ****** ******
      ****** ****** ****** ****** ****** ****** ****** ****** ****** ******
  20  ****** ****** ****** ****** ****** ****** ****** ****** ****** ******
      ****** ****** ****** ****** ****** ****** ****** ****** ****** ******
      ****** ****** ****** ****** ****** ****** ****** ****** ****** ******
  21  ****** ****** ****** ****** ****** ****** ****** ****** ****** ******
      ****** ****** ****** ****** ****** ****** ****** ****** ****** ******
      ****** ****** ****** ****** ****** ****** ****** ****** ****** ******
  22  ****** ****** ****** ****** ****** ****** ****** ****** ****** ******
      ****** ****** ****** ****** ****** ****** ****** ****** ****** ******
      ****** ****** ****** ****** ****** ****** ****** ****** ****** ******
  23  ****** ****** ****** ****** ****** ****** ****** ****** ****** ******
      ****** ****** ****** ****** ****** ****** ****** ****** ****** ******
      ****** ****** ****** ****** ****** ****** ****** ****** ****** ******
  24  ****** ****** ****** ****** ****** ****** ****** ****** ****** ******
      ****** ****** ****** ****** ****** ****** ****** ****** ****** ******
      ****** ****** ****** ****** ****** ****** ****** ****** ****** ******
  25  ****** ****** ****** ****** ****** ****** ****** ****** ****** ******
      ****** ****** ****** ****** ****** ****** ****** ****** ****** ******
      ****** ****** ****** ****** ****** ****** ****** ****** ****** ******

 HEAD WILL BE SAVED ON UNIT   51 AT END OF TIME STEP    1, STRESS PERIOD    3
1
  VOLUMETRIC BUDGET FOR ENTIRE MODEL AT END OF TIME STEP    1, STRESS PERIOD   3
  ------------------------------------------------------------------------------

     CUMULATIVE VOLUMES      L**3       RATES FOR THIS TIME STEP      L**3/T
     ------------------                 ------------------------

           IN:                                      IN:
           ---                                      ---
             STORAGE =    24505551.1490               STORAGE =       27253.5585
       CONSTANT HEAD =    47238896.1379         CONSTANT HEAD =      197724.3297
               WELLS =           0.0000                 WELLS =           0.0000
            RECHARGE =     6292800.0000              RECHARGE =           0.0000
      STREAM LEAKAGE =     1727529.0371        STREAM LEAKAGE =        7121.1600

            TOTAL IN =    79764776.3241              TOTAL IN =      232099.0481

          OUT:                                     OUT:
          ----                                     ----
             STORAGE =           0.0000               STORAGE =           0.0000
       CONSTANT HEAD =           0.0000         CONSTANT HEAD =           0.0000
               WELLS =    36527090.9268                 WELLS =      133310.5508
            RECHARGE =           0.0000              RECHARGE =           0.0000
      STREAM LEAKAGE =    43237686.2762        STREAM LEAKAGE =       98788.5000

           TOTAL OUT =    79764777.2030             TOTAL OUT =      232099.0509

            IN - OUT =          -0.8789              IN - OUT =      -2.7680E-03

 PERCENT DISCREPANCY =          -0.00     PERCENT DISCREPANCY =          -0.00






         TIME SUMMARY AT END OF TIME STEP    1 IN STRESS PERIOD    3
                    SECONDS     MINUTES      HOURS       DAYS        YEARS
                    -----------------------------------------------------------
   TIME STEP LENGTH 7.86240E+06 1.31040E+05  2184.0      91.000     0.24914    
 STRESS PERIOD TIME 7.86240E+06 1.31040E+05  2184.0      91.000     0.24914    
         TOTAL TIME 2.36736E+07 3.94560E+05  6576.0      274.00     0.75017    
1
1
                            STRESS PERIOD NO.    4, LENGTH =   91.00000    
                            -----------------------------------------------

                              NUMBER OF TIME STEPS =     1

                               MULTIPLIER FOR DELT =     1.500

                            INITIAL TIME STEP SIZE =   91.00000    

 WELL NO.  LAYER   ROW   COL   STRESS RATE         
 --------------------------------------------------
      1      1     23     20     -0.3361E+05
      2      1     23      4     -0.3381E+05
      3      1      5     26     -0.3082E+05
      4      1     21     27     -0.3506E+05

      4 WELLS

                 RECHARGE =  1.000000E-03

 REUSING STREAM SEGMENT DATA FROM LAST STRESS PERIOD
 
 SOLVING FOR HEAD 


     6 CALLS TO PCG ROUTINE FOR TIME STEP   1 IN STRESS PERIOD    4
    20 TOTAL ITERATIONS

 OUTPUT CONTROL FOR STRESS PERIOD    4   TIME STEP    1
    SAVE BUDGET
    SAVE HEAD FOR ALL LAYERS
    PRINT HEAD FOR ALL LAYERS
 UBDSV2 SAVING "STREAMFLOW OUT  " ON UNIT  50 AT TIME STEP  1, STRESS PERIOD   4



 STREAM LISTING     PERIOD      4   STEP        1

 LAYER ROW COL. STREAM  RCH.  FLOW INTO     FLOW TO   FLOW OUT OF   OVRLND.     DIRECT     STREAM       STREAM     STREAM     STREAM   STREAMBED  STREAMBED
                SEG.NO.  NO.  STRM. RCH.    AQUIFER    STRM. RCH.    RUNOFF     PRECIP       ET          HEAD       DEPTH      WIDTH   CONDCTNC.   GRADIENT

   1   13    1     1     1    1.0000E+05 -2.6407E+03   1.0264E+05  0.000E+00  0.000E+00  0.000E+00  4.84072E+01  1.458E-01  2.000E+01  2.000E+04 -1.320E-01
   1   13    2     1     2    1.0264E+05 -4.6940E+03   1.0733E+05  0.000E+00  0.000E+00  0.000E+00  4.79330E+01  1.489E-01  2.000E+01  2.000E+04 -2.347E-01
   1   14    3     1     3    1.0733E+05 -3.3573E+03   1.1069E+05  0.000E+00  0.000E+00  0.000E+00  4.74592E+01  1.523E-01  2.000E+01  2.000E+04 -1.679E-01
   1   15    4     1     4    1.1069E+05 -2.9207E+03   1.1361E+05  0.000E+00  0.000E+00  0.000E+00  4.69845E+01  1.550E-01  2.000E+01  2.000E+04 -1.460E-01
   1   16    5     1     5    1.1361E+05 -2.6518E+03   1.1626E+05  0.000E+00  0.000E+00  0.000E+00  4.65095E+01  1.573E-01  2.000E+01  2.000E+04 -1.326E-01
   1   16    6     1     6    1.1626E+05 -2.4875E+03   1.1875E+05  0.000E+00  0.000E+00  0.000E+00  4.60344E+01  1.594E-01  2.000E+01  2.000E+04 -1.244E-01
   1   16    7     1     7    1.1875E+05 -2.7273E+03   1.2148E+05  0.000E+00  0.000E+00  0.000E+00  4.55592E+01  1.615E-01  2.000E+01  2.000E+04 -1.364E-01
   1   16    8     1     8    1.2148E+05 -2.8962E+03   1.2438E+05  0.000E+00  0.000E+00  0.000E+00  4.50842E+01  1.637E-01  2.000E+01  2.000E+04 -1.448E-01
   1   16    9     1     9    1.2438E+05 -2.9925E+03   1.2737E+05  0.000E+00  0.000E+00  0.000E+00  4.46092E+01  1.661E-01  2.000E+01  2.000E+04 -1.496E-01
   1   16   10     1    10    1.2737E+05 -3.0170E+03   1.3039E+05  0.000E+00  0.000E+00  0.000E+00  4.41343E+01  1.684E-01  2.000E+01  2.000E+04 -1.509E-01
   1   16   11     1    11    1.3039E+05 -2.9853E+03   1.3337E+05  0.000E+00  0.000E+00  0.000E+00  4.36594E+01  1.708E-01  2.000E+01  2.000E+04 -1.493E-01
   1   16   12     1    12    1.3337E+05 -3.7893E+03   1.3716E+05  0.000E+00  0.000E+00  0.000E+00  4.31848E+01  1.734E-01  2.000E+01  2.000E+04 -1.895E-01
   1   15   13     1    13    1.3716E+05 -3.6410E+03   1.4080E+05  0.000E+00  0.000E+00  0.000E+00  4.27103E+01  1.762E-01  2.000E+01  2.000E+04 -1.820E-01
   1   14   14     1    14    1.4080E+05 -3.7615E+03   1.4456E+05  0.000E+00  0.000E+00  0.000E+00  4.22359E+01  1.790E-01  2.000E+01  2.000E+04 -1.881E-01
   1   13   15     1    15    1.4456E+05 -4.1048E+03   1.4867E+05  0.000E+00  0.000E+00  0.000E+00  4.17615E+01  1.820E-01  2.000E+01  2.000E+04 -2.052E-01
   1   12   16     1    16    1.4867E+05 -5.3299E+03   1.5400E+05  0.000E+00  0.000E+00  0.000E+00  4.12877E+01  1.855E-01  2.000E+01  2.000E+04 -2.665E-01
   1   12   17     1    17    1.5400E+05 -3.3756E+03   1.5737E+05  0.000E+00  0.000E+00  0.000E+00  4.08137E+01  1.887E-01  2.000E+01  2.000E+04 -1.688E-01
   1   12   18     1    18    1.5737E+05 -3.1678E+03   1.6054E+05  0.000E+00  0.000E+00  0.000E+00  4.03388E+01  1.910E-01  2.000E+01  2.000E+04 -1.584E-01
   1   12   19     1    19    1.6054E+05 -4.0454E+03   1.6459E+05  0.000E+00  0.000E+00  0.000E+00  3.98641E+01  1.936E-01  2.000E+01  2.000E+04 -2.023E-01
   1   13   20     1    20    1.6459E+05 -2.4379E+03   1.6702E+05  0.000E+00  0.000E+00  0.000E+00  3.93891E+01  1.959E-01  2.000E+01  2.000E+04 -1.219E-01
   1   14   21     1    21    1.6702E+05 -1.4164E+03   1.6844E+05  0.000E+00  0.000E+00  0.000E+00  3.89132E+01  1.973E-01  2.000E+01  2.000E+04 -7.082E-02
   1   14   22     1    22    1.6844E+05  5.3042E+03   1.6314E+05  0.000E+00  0.000E+00  0.000E+00  3.84345E+01  1.959E-01  2.000E+01  2.000E+04  2.652E-01
   1    9   30     2     1    5.0000E+04 -1.4394E+03   5.1439E+04  0.000E+00  0.000E+00  0.000E+00  4.02419E+01  1.169E-01  2.000E+01  2.000E+04 -7.197E-02
   1    9   29     2     2    5.1439E+04 -1.6058E+03   5.3045E+04  0.000E+00  0.000E+00  0.000E+00  3.99940E+01  1.190E-01  2.000E+01  2.000E+04 -8.029E-02
   1    9   28     2     3    5.3045E+04 -1.6390E+03   5.4684E+04  0.000E+00  0.000E+00  0.000E+00  3.97462E+01  1.212E-01  2.000E+01  2.000E+04 -8.195E-02
   1    9   27     2     4    5.4684E+04 -2.9255E+03   5.7610E+04  0.000E+00  0.000E+00  0.000E+00  3.94992E+01  1.242E-01  2.000E+01  2.000E+04 -1.463E-01
   1   10   26     2     5    5.7610E+04 -2.1138E+03   5.9724E+04  0.000E+00  0.000E+00  0.000E+00  3.92525E+01  1.275E-01  2.000E+01  2.000E+04 -1.057E-01
   1   11   25     2     6    5.9724E+04 -1.8288E+03   6.1552E+04  0.000E+00  0.000E+00  0.000E+00  3.90051E+01  1.301E-01  2.000E+01  2.000E+04 -9.144E-02
   1   12   24     2     7    6.1552E+04 -1.4141E+03   6.2966E+04  0.000E+00  0.000E+00  0.000E+00  3.87572E+01  1.322E-01  2.000E+01  2.000E+04 -7.071E-02
   1   13   23     2     8    6.2966E+04 -8.6146E+02   6.3828E+04  0.000E+00  0.000E+00  0.000E+00  3.85086E+01  1.336E-01  2.000E+01  2.000E+04 -4.307E-02
   1   14   22     2     9    6.3828E+04  1.7738E+03   6.2054E+04  0.000E+00  0.000E+00  0.000E+00  3.82580E+01  1.330E-01  2.000E+01  2.000E+04  8.869E-02
   1   14   22     3     1    2.2519E+05 -8.3253E+03   2.3352E+05  0.000E+00  0.000E+00  0.000E+00  3.77531E+01  1.975E-01  2.000E+01  2.000E+04 -4.163E-01
   1   15   23     3     2    2.3352E+05 -1.5445E+03   2.3506E+05  0.000E+00  0.000E+00  0.000E+00  3.68667E+01  2.001E-01  2.000E+01  2.000E+04 -7.722E-02
   1   15   24     3     3    2.3506E+05 -1.0407E+03   2.3610E+05  0.000E+00  0.000E+00  0.000E+00  3.59785E+01  2.007E-01  2.000E+01  2.000E+04 -5.204E-02
   1   15   25     3     4    2.3610E+05 -9.9663E+02   2.3710E+05  0.000E+00  0.000E+00  0.000E+00  3.50901E+01  2.012E-01  2.000E+01  2.000E+04 -4.983E-02
   1   15   26     3     5    2.3710E+05 -1.5720E+03   2.3867E+05  0.000E+00  0.000E+00  0.000E+00  3.42019E+01  2.019E-01  2.000E+01  2.000E+04 -7.860E-02
   1   16   27     3     6    2.3867E+05 -1.2800E+03   2.3995E+05  0.000E+00  0.000E+00  0.000E+00  3.33137E+01  2.026E-01  2.000E+01  2.000E+04 -6.400E-02
   1   17   28     3     7    2.3995E+05 -8.5237E+02   2.4080E+05  0.000E+00  0.000E+00  0.000E+00  3.24254E+01  2.032E-01  2.000E+01  2.000E+04 -4.262E-02
   1   18   29     3     8    2.4080E+05 -6.9024E+02   2.4149E+05  0.000E+00  0.000E+00  0.000E+00  3.15369E+01  2.035E-01  2.000E+01  2.000E+04 -3.451E-02
   1   18   30     3     9    2.4149E+05 -2.1305E+03   2.4362E+05  0.000E+00  0.000E+00  0.000E+00  3.06487E+01  2.043E-01  2.000E+01  2.000E+04 -1.065E-01



1
              HEAD IN LAYER   1 AT END OF TIME STEP   1 IN STRESS PERIOD    4
  ---------------------------------------------------------------------------

          1      2      3      4      5      6      7      8      9     10
         11     12     13     14     15     16     17     18     19     20
         21     22     23     24     25     26     27     28     29     30
 .........................................................................
   1  ****** ****** ****** ****** ****** ****** ****** ****** ****** ******
      ****** ****** ****** ****** ****** ****** ****** ****** ****** ******
      ****** ****** ****** ****** ****** ****** ****** ****** ****** ******
   2  ****** ****** ****** ****** ****** ****** ****** ****** ****** ******
      ****** ****** ****** ****** ****** ****** ****** ****** ****** ******
      ****** ****** ****** ****** ****** ****** ****** ****** ****** ******
   3  ****** ****** ****** ****** ****** ****** ****** ****** ****** ******
      ****** ****** ****** ****** ****** ****** ****** ****** ****** ******
      ****** ****** ****** ****** ****** ****** ****** ****** ****** ******
   4  ****** ****** ****** ****** ****** ****** ****** ****** ****** ******
      ****** ****** ****** ****** ****** ****** ****** ****** ****** ******
      ****** ****** ****** ****** ****** ****** ****** ****** ****** ******
   5  ****** ****** ****** ****** ****** ****** ****** ****** ****** ******
      ****** ****** ****** ****** ****** ****** ****** ****** ****** ******
      ****** ****** ****** ****** ****** ****** ****** ****** ****** ******
   6  ****** ****** ****** ****** ****** ****** ****** ****** ****** ******
      ****** ****** ****** ****** ****** ****** ****** ****** ****** ******
      ****** ****** ****** ****** ****** ****** ****** ****** ****** ******
   7  ****** ****** ****** ****** ****** ****** ****** ****** ****** ******
      ****** ****** ****** ****** ****** ****** ****** ****** ****** ******
      ****** ****** ****** ****** ****** ****** ****** ****** ****** ******
   8  ****** ****** ****** ****** ****** ****** ****** ****** ****** ******
      ****** ****** ****** ****** ****** ****** ****** ****** ****** ******
      ****** ****** ****** ****** ****** ****** ****** ****** ****** ******
   9  ****** ****** ****** ****** ****** ****** ****** ****** ****** ******
      ****** ****** ****** ****** ****** ****** ****** ****** ****** ******
      ****** ****** ****** ****** ****** ****** ****** ****** ****** ******
  10  ****** ****** ****** ****** ****** ****** ****** ****** ****** ******
      ****** ****** ****** ****** ****** ****** ****** ****** ****** ******
      ****** ****** ****** ****** ****** ****** ****** ****** ****** ******
  11  ****** ****** ****** ****** ****** ****** ****** ****** ****** ******
      ****** ****** ****** ****** ****** ****** ****** ****** ****** ******
      ****** ****** ****** ****** ****** ****** ****** ****** ****** ******
  12  ****** ****** ****** ****** ****** ****** ****** ****** ****** ******
      ****** ****** ****** ****** ****** ****** ****** ****** ****** ******
      ****** ****** ****** ****** ****** ****** ****** ****** ****** ******
  13  ****** ****** ****** ****** ****** ****** ****** ****** ****** ******
      ****** ****** ****** ****** ****** ****** ****** ****** ****** ******
      ****** ****** ****** ****** ****** ****** ****** ****** ****** ******
  14  ****** ****** ****** ****** ****** ****** ****** ****** ****** ******
      ****** ****** ****** ****** ****** ****** ****** ****** ****** ******
      ****** ****** ****** ****** ****** ****** ****** ****** ****** ******
  15  ****** ****** ****** ****** ****** ****** ****** ****** ****** ******
      ****** ****** ****** ****** ****** ****** ****** ****** ****** ******
      ****** ****** ****** ****** ****** ****** ****** ****** ****** ******
  16  ****** ****** ****** ****** ****** ****** ****** ****** ****** ******
      ****** ****** ****** ****** ****** ****** ****** ****** ****** ******
      ****** ****** ****** ****** ****** ****** ****** ****** ****** ******
  17  ****** ****** ****** ****** ****** ****** ****** ****** ****** ******
      ****** ****** ****** ****** ****** ****** ****** ****** ****** ******
      ****** ****** ****** ****** ****** ****** ****** ****** ****** ******
  18  ****** ****** ****** ****** ****** ****** ****** ****** ****** ******
      ****** ****** ****** ****** ****** ****** ****** ****** ****** ******
      ****** ****** ****** ****** ****** ****** ****** ****** ****** ******
  19  ****** ****** ****** ****** ****** ****** ****** ****** ****** ******
      ****** ****** ****** ****** ****** ****** ****** ****** ****** ******
      ****** ****** ****** ****** ****** ****** ****** ****** ****** ******
  20  ****** ****** ****** ****** ****** ****** ****** ****** ****** ******
      ****** ****** ****** ****** ****** ****** ****** ****** ****** ******
      ****** ****** ****** ****** ****** ****** ****** ****** ****** ******
  21  ****** ****** ****** ****** ****** ****** ****** ****** ****** ******
      ****** ****** ****** ****** ****** ****** ****** ****** ****** ******
      ****** ****** ****** ****** ****** ****** ****** ****** ****** ******
  22  ****** ****** ****** ****** ****** ****** ****** ****** ****** ******
      ****** ****** ****** ****** ****** ****** ****** ****** ****** ******
      ****** ****** ****** ****** ****** ****** ****** ****** ****** ******
  23  ****** ****** ****** ****** ****** ****** ****** ****** ****** ******
      ****** ****** ****** ****** ****** ****** ****** ****** ****** ******
      ****** ****** ****** ****** ****** ****** ****** ****** ****** ******
  24  ****** ****** ****** ****** ****** ****** ****** ****** ****** ******
      ****** ****** ****** ****** ****** ****** ****** ****** ****** ******
      ****** ****** ****** ****** ****** ****** ****** ****** ****** ******
  25  ****** ****** ****** ****** ****** ****** ****** ****** ****** ******
      ****** ****** ****** ****** ****** ****** ****** ****** ****** ******
      ****** ****** ****** ****** ****** ****** ****** ****** ****** ******

 HEAD WILL BE SAVED ON UNIT   51 AT END OF TIME STEP    1, STRESS PERIOD    4
1
  VOLUMETRIC BUDGET FOR ENTIRE MODEL AT END OF TIME STEP    1, STRESS PERIOD   4
  ------------------------------------------------------------------------------

     CUMULATIVE VOLUMES      L**3       RATES FOR THIS TIME STEP      L**3/T
     ------------------                 ------------------------

           IN:                                      IN:
           ---                                      ---
             STORAGE =    24662205.8568               STORAGE =        1721.4803
       CONSTANT HEAD =    65232088.8097         CONSTANT HEAD =      197727.3920
               WELLS =           0.0000                 WELLS =           0.0000
            RECHARGE =     8804400.0000              RECHARGE =       27600.0000
      STREAM LEAKAGE =     2371624.0198        STREAM LEAKAGE =        7077.9668

            TOTAL IN =   101070318.6864              TOTAL IN =      234126.8391

          OUT:                                     OUT:
          ----                                     ----
             STORAGE =       10568.9001               STORAGE =         116.1418
       CONSTANT HEAD =           0.0000         CONSTANT HEAD =           0.0000
               WELLS =    48658351.0521                 WELLS =      133310.5508
            RECHARGE =           0.0000              RECHARGE =           0.0000
      STREAM LEAKAGE =    52401399.4634        STREAM LEAKAGE =      100700.1449

           TOTAL OUT =   101070319.4157             TOTAL OUT =      234126.8375

            IN - OUT =          -0.7293              IN - OUT =       1.6438E-03

 PERCENT DISCREPANCY =          -0.00     PERCENT DISCREPANCY =           0.00






         TIME SUMMARY AT END OF TIME STEP    1 IN STRESS PERIOD    4
                    SECONDS     MINUTES      HOURS       DAYS        YEARS
                    -----------------------------------------------------------
   TIME STEP LENGTH 7.86240E+06 1.31040E+05  2184.0      91.000     0.24914    
 STRESS PERIOD TIME 7.86240E+06 1.31040E+05  2184.0      91.000     0.24914    
         TOTAL TIME 3.15360E+07 5.25600E+05  8760.0      365.00     0.99932    
1
1
                            STRESS PERIOD NO.    5, LENGTH =   92.00000    
                            -----------------------------------------------

                              NUMBER OF TIME STEPS =     1

                               MULTIPLIER FOR DELT =     1.500

                            INITIAL TIME STEP SIZE =   92.00000    

 WELL NO.  LAYER   ROW   COL   STRESS RATE         
 --------------------------------------------------
      1      1     23     20     -0.3361E+05
      2      1     23      4     -0.3381E+05
      3      1      5     26     -0.3082E+05
      4      1     21     27     -0.3506E+05

      4 WELLS

                 RECHARGE =  5.000000E-04

 REUSING STREAM SEGMENT DATA FROM LAST STRESS PERIOD
 
 SOLVING FOR HEAD 


     6 CALLS TO PCG ROUTINE FOR TIME STEP   1 IN STRESS PERIOD    5
    23 TOTAL ITERATIONS

 OUTPUT CONTROL FOR STRESS PERIOD    5   TIME STEP    1
    SAVE BUDGET
    SAVE HEAD FOR ALL LAYERS
    PRINT HEAD FOR ALL LAYERS
 UBDSV2 SAVING "STREAMFLOW OUT  " ON UNIT  50 AT TIME STEP  1, STRESS PERIOD   5



 STREAM LISTING     PERIOD      5   STEP        1

 LAYER ROW COL. STREAM  RCH.  FLOW INTO     FLOW TO   FLOW OUT OF   OVRLND.     DIRECT     STREAM       STREAM     STREAM     STREAM   STREAMBED  STREAMBED
                SEG.NO.  NO.  STRM. RCH.    AQUIFER    STRM. RCH.    RUNOFF     PRECIP       ET          HEAD       DEPTH      WIDTH   CONDCTNC.   GRADIENT

   1   13    1     1     1    1.0000E+05 -2.4632E+03   1.0246E+05  0.000E+00  0.000E+00  0.000E+00  4.84071E+01  1.457E-01  2.000E+01  2.000E+04 -1.232E-01
   1   13    2     1     2    1.0246E+05 -4.4497E+03   1.0691E+05  0.000E+00  0.000E+00  0.000E+00  4.79328E+01  1.487E-01  2.000E+01  2.000E+04 -2.225E-01
   1   14    3     1     3    1.0691E+05 -3.1263E+03   1.1004E+05  0.000E+00  0.000E+00  0.000E+00  4.74587E+01  1.519E-01  2.000E+01  2.000E+04 -1.563E-01
   1   15    4     1     4    1.1004E+05 -2.6988E+03   1.1274E+05  0.000E+00  0.000E+00  0.000E+00  4.69839E+01  1.543E-01  2.000E+01  2.000E+04 -1.349E-01
   1   16    5     1     5    1.1274E+05 -2.4542E+03   1.1519E+05  0.000E+00  0.000E+00  0.000E+00  4.65087E+01  1.565E-01  2.000E+01  2.000E+04 -1.227E-01
   1   16    6     1     6    1.1519E+05 -2.3282E+03   1.1752E+05  0.000E+00  0.000E+00  0.000E+00  4.60334E+01  1.584E-01  2.000E+01  2.000E+04 -1.164E-01
   1   16    7     1     7    1.1752E+05 -2.5644E+03   1.2008E+05  0.000E+00  0.000E+00  0.000E+00  4.55581E+01  1.604E-01  2.000E+01  2.000E+04 -1.282E-01
   1   16    8     1     8    1.2008E+05 -2.7313E+03   1.2282E+05  0.000E+00  0.000E+00  0.000E+00  4.50830E+01  1.625E-01  2.000E+01  2.000E+04 -1.366E-01
   1   16    9     1     9    1.2282E+05 -2.8277E+03   1.2564E+05  0.000E+00  0.000E+00  0.000E+00  4.46079E+01  1.648E-01  2.000E+01  2.000E+04 -1.414E-01
   1   16   10     1    10    1.2564E+05 -2.8540E+03   1.2850E+05  0.000E+00  0.000E+00  0.000E+00  4.41329E+01  1.670E-01  2.000E+01  2.000E+04 -1.427E-01
   1   16   11     1    11    1.2850E+05 -2.8251E+03   1.3132E+05  0.000E+00  0.000E+00  0.000E+00  4.36579E+01  1.692E-01  2.000E+01  2.000E+04 -1.413E-01
   1   16   12     1    12    1.3132E+05 -3.5836E+03   1.3491E+05  0.000E+00  0.000E+00  0.000E+00  4.31831E+01  1.717E-01  2.000E+01  2.000E+04 -1.792E-01
   1   15   13     1    13    1.3491E+05 -3.4111E+03   1.3832E+05  0.000E+00  0.000E+00  0.000E+00  4.27085E+01  1.744E-01  2.000E+01  2.000E+04 -1.706E-01
   1   14   14     1    14    1.3832E+05 -3.5241E+03   1.4184E+05  0.000E+00  0.000E+00  0.000E+00  4.22339E+01  1.771E-01  2.000E+01  2.000E+04 -1.762E-01
   1   13   15     1    15    1.4184E+05 -3.8689E+03   1.4571E+05  0.000E+00  0.000E+00  0.000E+00  4.17594E+01  1.799E-01  2.000E+01  2.000E+04 -1.934E-01
   1   12   16     1    16    1.4571E+05 -5.0969E+03   1.5081E+05  0.000E+00  0.000E+00  0.000E+00  4.12855E+01  1.832E-01  2.000E+01  2.000E+04 -2.548E-01
   1   12   17     1    17    1.5081E+05 -3.2109E+03   1.5402E+05  0.000E+00  0.000E+00  0.000E+00  4.08113E+01  1.863E-01  2.000E+01  2.000E+04 -1.605E-01
   1   12   18     1    18    1.5402E+05 -3.0088E+03   1.5703E+05  0.000E+00  0.000E+00  0.000E+00  4.03363E+01  1.885E-01  2.000E+01  2.000E+04 -1.504E-01
   1   12   19     1    19    1.5703E+05 -3.8543E+03   1.6088E+05  0.000E+00  0.000E+00  0.000E+00  3.98615E+01  1.910E-01  2.000E+01  2.000E+04 -1.927E-01
   1   13   20     1    20    1.6088E+05 -2.2588E+03   1.6314E+05  0.000E+00  0.000E+00  0.000E+00  3.93864E+01  1.932E-01  2.000E+01  2.000E+04 -1.129E-01
   1   14   21     1    21    1.6314E+05 -1.2483E+03   1.6439E+05  0.000E+00  0.000E+00  0.000E+00  3.89104E+01  1.945E-01  2.000E+01  2.000E+04 -6.241E-02
   1   14   22     1    22    1.6439E+05  5.3322E+03   1.5906E+05  0.000E+00  0.000E+00  0.000E+00  3.84316E+01  1.930E-01  2.000E+01  2.000E+04  2.666E-01
   1    9   30     2     1    5.0000E+04 -1.3185E+03   5.1319E+04  0.000E+00  0.000E+00  0.000E+00  4.02418E+01  1.168E-01  2.000E+01  2.000E+04 -6.593E-02
   1    9   29     2     2    5.1319E+04 -1.4851E+03   5.2804E+04  0.000E+00  0.000E+00  0.000E+00  3.99937E+01  1.187E-01  2.000E+01  2.000E+04 -7.426E-02
   1    9   28     2     3    5.2804E+04 -1.5170E+03   5.4321E+04  0.000E+00  0.000E+00  0.000E+00  3.97458E+01  1.208E-01  2.000E+01  2.000E+04 -7.585E-02
   1    9   27     2     4    5.4321E+04 -2.7534E+03   5.7074E+04  0.000E+00  0.000E+00  0.000E+00  3.94986E+01  1.236E-01  2.000E+01  2.000E+04 -1.377E-01
   1   10   26     2     5    5.7074E+04 -1.9397E+03   5.9014E+04  0.000E+00  0.000E+00  0.000E+00  3.92517E+01  1.267E-01  2.000E+01  2.000E+04 -9.699E-02
   1   11   25     2     6    5.9014E+04 -1.6625E+03   6.0676E+04  0.000E+00  0.000E+00  0.000E+00  3.90041E+01  1.291E-01  2.000E+01  2.000E+04 -8.312E-02
   1   12   24     2     7    6.0676E+04 -1.2670E+03   6.1943E+04  0.000E+00  0.000E+00  0.000E+00  3.87559E+01  1.309E-01  2.000E+01  2.000E+04 -6.335E-02
   1   13   23     2     8    6.1943E+04 -7.4689E+02   6.2690E+04  0.000E+00  0.000E+00  0.000E+00  3.85072E+01  1.322E-01  2.000E+01  2.000E+04 -3.734E-02
   1   14   22     2     9    6.2690E+04  1.8300E+03   6.0860E+04  0.000E+00  0.000E+00  0.000E+00  3.82565E+01  1.315E-01  2.000E+01  2.000E+04  9.150E-02
   1   14   22     3     1    2.1992E+05 -8.2943E+03   2.2821E+05  0.000E+00  0.000E+00  0.000E+00  3.77503E+01  1.948E-01  2.000E+01  2.000E+04 -4.147E-01
   1   15   23     3     2    2.2821E+05 -1.3873E+03   2.2960E+05  0.000E+00  0.000E+00  0.000E+00  3.68640E+01  1.973E-01  2.000E+01  2.000E+04 -6.937E-02
   1   15   24     3     3    2.2960E+05 -9.3340E+02   2.3053E+05  0.000E+00  0.000E+00  0.000E+00  3.59757E+01  1.979E-01  2.000E+01  2.000E+04 -4.667E-02
   1   15   25     3     4    2.3053E+05 -8.9350E+02   2.3143E+05  0.000E+00  0.000E+00  0.000E+00  3.50872E+01  1.984E-01  2.000E+01  2.000E+04 -4.467E-02
   1   15   26     3     5    2.3143E+05 -1.4478E+03   2.3287E+05  0.000E+00  0.000E+00  0.000E+00  3.41990E+01  1.990E-01  2.000E+01  2.000E+04 -7.239E-02
   1   16   27     3     6    2.3287E+05 -1.1177E+03   2.3399E+05  0.000E+00  0.000E+00  0.000E+00  3.33107E+01  1.996E-01  2.000E+01  2.000E+04 -5.588E-02
   1   17   28     3     7    2.3399E+05 -6.8511E+02   2.3468E+05  0.000E+00  0.000E+00  0.000E+00  3.24223E+01  2.001E-01  2.000E+01  2.000E+04 -3.426E-02
   1   18   29     3     8    2.3468E+05 -5.2934E+02   2.3521E+05  0.000E+00  0.000E+00  0.000E+00  3.15337E+01  2.004E-01  2.000E+01  2.000E+04 -2.647E-02
   1   18   30     3     9    2.3521E+05 -2.0142E+03   2.3722E+05  0.000E+00  0.000E+00  0.000E+00  3.06455E+01  2.010E-01  2.000E+01  2.000E+04 -1.007E-01



1
              HEAD IN LAYER   1 AT END OF TIME STEP   1 IN STRESS PERIOD    5
  ---------------------------------------------------------------------------

          1      2      3      4      5      6      7      8      9     10
         11     12     13     14     15     16     17     18     19     20
         21     22     23     24     25     26     27     28     29     30
 .........................................................................
   1  ****** ****** ****** ****** ****** ****** ****** ****** ****** ******
      ****** ****** ****** ****** ****** ****** ****** ****** ****** ******
      ****** ****** ****** ****** ****** ****** ****** ****** ****** ******
   2  ****** ****** ****** ****** ****** ****** ****** ****** ****** ******
      ****** ****** ****** ****** ****** ****** ****** ****** ****** ******
      ****** ****** ****** ****** ****** ****** ****** ****** ****** ******
   3  ****** ****** ****** ****** ****** ****** ****** ****** ****** ******
      ****** ****** ****** ****** ****** ****** ****** ****** ****** ******
      ****** ****** ****** ****** ****** ****** ****** ****** ****** ******
   4  ****** ****** ****** ****** ****** ****** ****** ****** ****** ******
      ****** ****** ****** ****** ****** ****** ****** ****** ****** ******
      ****** ****** ****** ****** ****** ****** ****** ****** ****** ******
   5  ****** ****** ****** ****** ****** ****** ****** ****** ****** ******
      ****** ****** ****** ****** ****** ****** ****** ****** ****** ******
      ****** ****** ****** ****** ****** ****** ****** ****** ****** ******
   6  ****** ****** ****** ****** ****** ****** ****** ****** ****** ******
      ****** ****** ****** ****** ****** ****** ****** ****** ****** ******
      ****** ****** ****** ****** ****** ****** ****** ****** ****** ******
   7  ****** ****** ****** ****** ****** ****** ****** ****** ****** ******
      ****** ****** ****** ****** ****** ****** ****** ****** ****** ******
      ****** ****** ****** ****** ****** ****** ****** ****** ****** ******
   8  ****** ****** ****** ****** ****** ****** ****** ****** ****** ******
      ****** ****** ****** ****** ****** ****** ****** ****** ****** ******
      ****** ****** ****** ****** ****** ****** ****** ****** ****** ******
   9  ****** ****** ****** ****** ****** ****** ****** ****** ****** ******
      ****** ****** ****** ****** ****** ****** ****** ****** ****** ******
      ****** ****** ****** ****** ****** ****** ****** ****** ****** ******
  10  ****** ****** ****** ****** ****** ****** ****** ****** ****** ******
      ****** ****** ****** ****** ****** ****** ****** ****** ****** ******
      ****** ****** ****** ****** ****** ****** ****** ****** ****** ******
  11  ****** ****** ****** ****** ****** ****** ****** ****** ****** ******
      ****** ****** ****** ****** ****** ****** ****** ****** ****** ******
      ****** ****** ****** ****** ****** ****** ****** ****** ****** ******
  12  ****** ****** ****** ****** ****** ****** ****** ****** ****** ******
      ****** ****** ****** ****** ****** ****** ****** ****** ****** ******
      ****** ****** ****** ****** ****** ****** ****** ****** ****** ******
  13  ****** ****** ****** ****** ****** ****** ****** ****** ****** ******
      ****** ****** ****** ****** ****** ****** ****** ****** ****** ******
      ****** ****** ****** ****** ****** ****** ****** ****** ****** ******
  14  ****** ****** ****** ****** ****** ****** ****** ****** ****** ******
      ****** ****** ****** ****** ****** ****** ****** ****** ****** ******
      ****** ****** ****** ****** ****** ****** ****** ****** ****** ******
  15  ****** ****** ****** ****** ****** ****** ****** ****** ****** ******
      ****** ****** ****** ****** ****** ****** ****** ****** ****** ******
      ****** ****** ****** ****** ****** ****** ****** ****** ****** ******
  16  ****** ****** ****** ****** ****** ****** ****** ****** ****** ******
      ****** ****** ****** ****** ****** ****** ****** ****** ****** ******
      ****** ****** ****** ****** ****** ****** ****** ****** ****** ******
  17  ****** ****** ****** ****** ****** ****** ****** ****** ****** ******
      ****** ****** ****** ****** ****** ****** ****** ****** ****** ******
      ****** ****** ****** ****** ****** ****** ****** ****** ****** ******
  18  ****** ****** ****** ****** ****** ****** ****** ****** ****** ******
      ****** ****** ****** ****** ****** ****** ****** ****** ****** ******
      ****** ****** ****** ****** ****** ****** ****** ****** ****** ******
  19  ****** ****** ****** ****** ****** ****** ****** ****** ****** ******
      ****** ****** ****** ****** ****** ****** ****** ****** ****** ******
      ****** ****** ****** ****** ****** ****** ****** ****** ****** ******
  20  ****** ****** ****** ****** ****** ****** ****** ****** ****** ******
      ****** ****** ****** ****** ****** ****** ****** ****** ****** ******
      ****** ****** ****** ****** ****** ****** ****** ****** ****** ******
  21  ****** ****** ****** ****** ****** ****** ****** ****** ****** ******
      ****** ****** ****** ****** ****** ****** ****** ****** ****** ******
      ****** ****** ****** ****** ****** ****** ****** ****** ****** ******
  22  ****** ****** ****** ****** ****** ****** ****** ****** ****** ******
      ****** ****** ****** ****** ****** ****** ****** ****** ****** ******
      ****** ****** ****** ****** ****** ****** ****** ****** ****** ******
  23  ****** ****** ****** ****** ****** ****** ****** ****** ****** ******
      ****** ****** ****** ****** ****** ****** ****** ****** ****** ******
      ****** ****** ****** ****** ****** ****** ****** ****** ****** ******
  24  ****** ****** ****** ****** ****** ****** ****** ****** ****** ******
      ****** ****** ****** ****** ****** ****** ****** ****** ****** ******
      ****** ****** ****** ****** ****** ****** ****** ****** ****** ******
  25  ****** ****** ****** ****** ****** ****** ****** ****** ****** ******
      ****** ****** ****** ****** ****** ****** ****** ****** ****** ******
      ****** ****** ****** ****** ****** ****** ****** ****** ****** ******

 HEAD WILL BE SAVED ON UNIT   51 AT END OF TIME STEP    1, STRESS PERIOD    5
1
  VOLUMETRIC BUDGET FOR ENTIRE MODEL AT END OF TIME STEP    1, STRESS PERIOD   5
  ------------------------------------------------------------------------------

     CUMULATIVE VOLUMES      L**3       RATES FOR THIS TIME STEP      L**3/T
     ------------------                 ------------------------

           IN:                                      IN:
           ---                                      ---
             STORAGE =    25081758.9304               STORAGE =        4560.3595
       CONSTANT HEAD =    83831681.0866         CONSTANT HEAD =      202169.4813
               WELLS =           0.0000                 WELLS =           0.0000
            RECHARGE =    10074000.0000              RECHARGE =       13800.0000
      STREAM LEAKAGE =     3030542.5771        STREAM LEAKAGE =        7162.1582

            TOTAL IN =   122017982.5941              TOTAL IN =      227691.9990

          OUT:                                     OUT:
          ----                                     ----
             STORAGE =       10568.9001               STORAGE =           0.0000
       CONSTANT HEAD =           0.0000         CONSTANT HEAD =           0.0000
               WELLS =    60922921.7283                 WELLS =      133310.5508
            RECHARGE =           0.0000              RECHARGE =           0.0000
      STREAM LEAKAGE =    61084492.7693        STREAM LEAKAGE =       94381.4490

           TOTAL OUT =   122017983.3977             TOTAL OUT =      227691.9998

            IN - OUT =          -0.8036              IN - OUT =      -8.0778E-04

 PERCENT DISCREPANCY =          -0.00     PERCENT DISCREPANCY =          -0.00






         TIME SUMMARY AT END OF TIME STEP    1 IN STRESS PERIOD    5
                    SECONDS     MINUTES      HOURS       DAYS        YEARS
                    -----------------------------------------------------------
   TIME STEP LENGTH 7.94880E+06 1.32480E+05  2208.0      92.000     0.25188    
 STRESS PERIOD TIME 7.94880E+06 1.32480E+05  2208.0      92.000     0.25188    
         TOTAL TIME 3.94848E+07 6.58080E+05  10968.      457.00      1.2512    
1
1
                            STRESS PERIOD NO.    6, LENGTH =   91.00000    
                            -----------------------------------------------

                              NUMBER OF TIME STEPS =     1

                               MULTIPLIER FOR DELT =     1.500

                            INITIAL TIME STEP SIZE =   91.00000    

 WELL NO.  LAYER   ROW   COL   STRESS RATE         
 --------------------------------------------------
      1      1     23     20     -0.3361E+05
      2      1     23      4     -0.3381E+05
      3      1      5     26     -0.3082E+05
      4      1     21     27     -0.3506E+05

      4 WELLS

                 RECHARGE =  2.000000E-03

 REUSING STREAM SEGMENT DATA FROM LAST STRESS PERIOD
 
 SOLVING FOR HEAD 


     7 CALLS TO PCG ROUTINE FOR TIME STEP   1 IN STRESS PERIOD    6
    26 TOTAL ITERATIONS

 OUTPUT CONTROL FOR STRESS PERIOD    6   TIME STEP    1
    SAVE BUDGET
    SAVE HEAD FOR ALL LAYERS
    PRINT HEAD FOR ALL LAYERS
 UBDSV2 SAVING "STREAMFLOW OUT  " ON UNIT  50 AT TIME STEP  1, STRESS PERIOD   6



 STREAM LISTING     PERIOD      6   STEP        1

 LAYER ROW COL. STREAM  RCH.  FLOW INTO     FLOW TO   FLOW OUT OF   OVRLND.     DIRECT     STREAM       STREAM     STREAM     STREAM   STREAMBED  STREAMBED
                SEG.NO.  NO.  STRM. RCH.    AQUIFER    STRM. RCH.    RUNOFF     PRECIP       ET          HEAD       DEPTH      WIDTH   CONDCTNC.   GRADIENT

   1   13    1     1     1    1.0000E+05 -2.8615E+03   1.0286E+05  0.000E+00  0.000E+00  0.000E+00  4.84073E+01  1.459E-01  2.000E+01  2.000E+04 -1.431E-01
   1   13    2     1     2    1.0286E+05 -4.9738E+03   1.0784E+05  0.000E+00  0.000E+00  0.000E+00  4.79333E+01  1.492E-01  2.000E+01  2.000E+04 -2.487E-01
   1   14    3     1     3    1.0784E+05 -3.6636E+03   1.1150E+05  0.000E+00  0.000E+00  0.000E+00  4.74597E+01  1.529E-01  2.000E+01  2.000E+04 -1.832E-01
   1   15    4     1     4    1.1150E+05 -3.2329E+03   1.1473E+05  0.000E+00  0.000E+00  0.000E+00  4.69853E+01  1.558E-01  2.000E+01  2.000E+04 -1.616E-01
   1   16    5     1     5    1.1473E+05 -2.9492E+03   1.1768E+05  0.000E+00  0.000E+00  0.000E+00  4.65106E+01  1.583E-01  2.000E+01  2.000E+04 -1.475E-01
   1   16    6     1     6    1.1768E+05 -2.7181E+03   1.2040E+05  0.000E+00  0.000E+00  0.000E+00  4.60356E+01  1.606E-01  2.000E+01  2.000E+04 -1.359E-01
   1   16    7     1     7    1.2040E+05 -2.9600E+03   1.2336E+05  0.000E+00  0.000E+00  0.000E+00  4.55606E+01  1.629E-01  2.000E+01  2.000E+04 -1.480E-01
   1   16    8     1     8    1.2336E+05 -3.1304E+03   1.2649E+05  0.000E+00  0.000E+00  0.000E+00  4.50858E+01  1.653E-01  2.000E+01  2.000E+04 -1.565E-01
   1   16    9     1     9    1.2649E+05 -3.2266E+03   1.2972E+05  0.000E+00  0.000E+00  0.000E+00  4.46110E+01  1.678E-01  2.000E+01  2.000E+04 -1.613E-01
   1   16   10     1    10    1.2972E+05 -3.2494E+03   1.3297E+05  0.000E+00  0.000E+00  0.000E+00  4.41363E+01  1.704E-01  2.000E+01  2.000E+04 -1.625E-01
   1   16   11     1    11    1.3297E+05 -3.2154E+03   1.3618E+05  0.000E+00  0.000E+00  0.000E+00  4.36615E+01  1.729E-01  2.000E+01  2.000E+04 -1.608E-01
   1   16   12     1    12    1.3618E+05 -4.0859E+03   1.4027E+05  0.000E+00  0.000E+00  0.000E+00  4.31870E+01  1.757E-01  2.000E+01  2.000E+04 -2.043E-01
   1   15   13     1    13    1.4027E+05 -3.9559E+03   1.4422E+05  0.000E+00  0.000E+00  0.000E+00  4.27128E+01  1.787E-01  2.000E+01  2.000E+04 -1.978E-01
   1   14   14     1    14    1.4422E+05 -4.0782E+03   1.4830E+05  0.000E+00  0.000E+00  0.000E+00  4.22385E+01  1.817E-01  2.000E+01  2.000E+04 -2.039E-01
   1   13   15     1    15    1.4830E+05 -4.4134E+03   1.5271E+05  0.000E+00  0.000E+00  0.000E+00  4.17644E+01  1.849E-01  2.000E+01  2.000E+04 -2.207E-01
   1   12   16     1    16    1.5271E+05 -5.6165E+03   1.5833E+05  0.000E+00  0.000E+00  0.000E+00  4.12908E+01  1.885E-01  2.000E+01  2.000E+04 -2.808E-01
   1   12   17     1    17    1.5833E+05 -3.5995E+03   1.6193E+05  0.000E+00  0.000E+00  0.000E+00  4.08169E+01  1.919E-01  2.000E+01  2.000E+04 -1.800E-01
   1   12   18     1    18    1.6193E+05 -3.3913E+03   1.6532E+05  0.000E+00  0.000E+00  0.000E+00  4.03421E+01  1.944E-01  2.000E+01  2.000E+04 -1.696E-01
   1   12   19     1    19    1.6532E+05 -4.3211E+03   1.6964E+05  0.000E+00  0.000E+00  0.000E+00  3.98676E+01  1.971E-01  2.000E+01  2.000E+04 -2.161E-01
   1   13   20     1    20    1.6964E+05 -2.7154E+03   1.7236E+05  0.000E+00  0.000E+00  0.000E+00  3.93928E+01  1.996E-01  2.000E+01  2.000E+04 -1.358E-01
   1   14   21     1    21    1.7236E+05 -1.6680E+03   1.7403E+05  0.000E+00  0.000E+00  0.000E+00  3.89170E+01  2.011E-01  2.000E+01  2.000E+04 -8.340E-02
   1   14   22     1    22    1.7403E+05  5.2503E+03   1.6878E+05  0.000E+00  0.000E+00  0.000E+00  3.84385E+01  1.999E-01  2.000E+01  2.000E+04  2.625E-01
   1    9   30     2     1    5.0000E+04 -1.6743E+03   5.1674E+04  0.000E+00  0.000E+00  0.000E+00  4.02420E+01  1.170E-01  2.000E+01  2.000E+04 -8.371E-02
   1    9   29     2     2    5.1674E+04 -1.8379E+03   5.3512E+04  0.000E+00  0.000E+00  0.000E+00  3.99944E+01  1.194E-01  2.000E+01  2.000E+04 -9.190E-02
   1    9   28     2     3    5.3512E+04 -1.8675E+03   5.5380E+04  0.000E+00  0.000E+00  0.000E+00  3.97469E+01  1.219E-01  2.000E+01  2.000E+04 -9.337E-02
   1    9   27     2     4    5.5380E+04 -3.2200E+03   5.8600E+04  0.000E+00  0.000E+00  0.000E+00  3.95003E+01  1.253E-01  2.000E+01  2.000E+04 -1.610E-01
   1   10   26     2     5    5.8600E+04 -2.4234E+03   6.1023E+04  0.000E+00  0.000E+00  0.000E+00  3.92540E+01  1.290E-01  2.000E+01  2.000E+04 -1.212E-01
   1   11   25     2     6    6.1023E+04 -2.1255E+03   6.3149E+04  0.000E+00  0.000E+00  0.000E+00  3.90069E+01  1.319E-01  2.000E+01  2.000E+04 -1.063E-01
   1   12   24     2     7    6.3149E+04 -1.6764E+03   6.4825E+04  0.000E+00  0.000E+00  0.000E+00  3.87593E+01  1.343E-01  2.000E+01  2.000E+04 -8.382E-02
   1   13   23     2     8    6.4825E+04 -1.0663E+03   6.5891E+04  0.000E+00  0.000E+00  0.000E+00  3.85111E+01  1.361E-01  2.000E+01  2.000E+04 -5.332E-02
   1   14   22     2     9    6.5891E+04  1.6938E+03   6.4198E+04  0.000E+00  0.000E+00  0.000E+00  3.82607E+01  1.357E-01  2.000E+01  2.000E+04  8.469E-02
   1   14   22     3     1    2.3297E+05 -8.3781E+03   2.4135E+05  0.000E+00  0.000E+00  0.000E+00  3.77571E+01  2.015E-01  2.000E+01  2.000E+04 -4.189E-01
   1   15   23     3     2    2.4135E+05 -1.7792E+03   2.4313E+05  0.000E+00  0.000E+00  0.000E+00  3.68708E+01  2.041E-01  2.000E+01  2.000E+04 -8.896E-02
   1   15   24     3     3    2.4313E+05 -1.2180E+03   2.4435E+05  0.000E+00  0.000E+00  0.000E+00  3.59826E+01  2.049E-01  2.000E+01  2.000E+04 -6.090E-02
   1   15   25     3     4    2.4435E+05 -1.1795E+03   2.4553E+05  0.000E+00  0.000E+00  0.000E+00  3.50944E+01  2.055E-01  2.000E+01  2.000E+04 -5.898E-02
   1   15   26     3     5    2.4553E+05 -1.8177E+03   2.4735E+05  0.000E+00  0.000E+00  0.000E+00  3.42062E+01  2.062E-01  2.000E+01  2.000E+04 -9.088E-02
   1   16   27     3     6    2.4735E+05 -1.5807E+03   2.4893E+05  0.000E+00  0.000E+00  0.000E+00  3.33182E+01  2.071E-01  2.000E+01  2.000E+04 -7.903E-02
   1   17   28     3     7    2.4893E+05 -1.1575E+03   2.5008E+05  0.000E+00  0.000E+00  0.000E+00  3.24300E+01  2.078E-01  2.000E+01  2.000E+04 -5.788E-02
   1   18   29     3     8    2.5008E+05 -9.7186E+02   2.5106E+05  0.000E+00  0.000E+00  0.000E+00  3.15416E+01  2.083E-01  2.000E+01  2.000E+04 -4.859E-02
   1   18   30     3     9    2.5106E+05 -2.3488E+03   2.5340E+05  0.000E+00  0.000E+00  0.000E+00  3.06536E+01  2.091E-01  2.000E+01  2.000E+04 -1.174E-01



1
              HEAD IN LAYER   1 AT END OF TIME STEP   1 IN STRESS PERIOD    6
  ---------------------------------------------------------------------------

          1      2      3      4      5      6      7      8      9     10
         11     12     13     14     15     16     17     18     19     20
         21     22     23     24     25     26     27     28     29     30
 .........................................................................
   1  ****** ****** ****** ****** ****** ****** ****** ****** ****** ******
      ****** ****** ****** ****** ****** ****** ****** ****** ****** ******
      ****** ****** ****** ****** ****** ****** ****** ****** ****** ******
   2  ****** ****** ****** ****** ****** ****** ****** ****** ****** ******
      ****** ****** ****** ****** ****** ****** ****** ****** ****** ******
      ****** ****** ****** ****** ****** ****** ****** ****** ****** ******
   3  ****** ****** ****** ****** ****** ****** ****** ****** ****** ******
      ****** ****** ****** ****** ****** ****** ****** ****** ****** ******
      ****** ****** ****** ****** ****** ****** ****** ****** ****** ******
   4  ****** ****** ****** ****** ****** ****** ****** ****** ****** ******
      ****** ****** ****** ****** ****** ****** ****** ****** ****** ******
      ****** ****** ****** ****** ****** ****** ****** ****** ****** ******
   5  ****** ****** ****** ****** ****** ****** ****** ****** ****** ******
      ****** ****** ****** ****** ****** ****** ****** ****** ****** ******
      ****** ****** ****** ****** ****** ****** ****** ****** ****** ******
   6  ****** ****** ****** ****** ****** ****** ****** ****** ****** ******
      ****** ****** ****** ****** ****** ****** ****** ****** ****** ******
      ****** ****** ****** ****** ****** ****** ****** ****** ****** ******
   7  ****** ****** ****** ****** ****** ****** ****** ****** ****** ******
      ****** ****** ****** ****** ****** ****** ****** ****** ****** ******
      ****** ****** ****** ****** ****** ****** ****** ****** ****** ******
   8  ****** ****** ****** ****** ****** ****** ****** ****** ****** ******
      ****** ****** ****** ****** ****** ****** ****** ****** ****** ******
      ****** ****** ****** ****** ****** ****** ****** ****** ****** ******
   9  ****** ****** ****** ****** ****** ****** ****** ****** ****** ******
      ****** ****** ****** ****** ****** ****** ****** ****** ****** ******
      ****** ****** ****** ****** ****** ****** ****** ****** ****** ******
  10  ****** ****** ****** ****** ****** ****** ****** ****** ****** ******
      ****** ****** ****** ****** ****** ****** ****** ****** ****** ******
      ****** ****** ****** ****** ****** ****** ****** ****** ****** ******
  11  ****** ****** ****** ****** ****** ****** ****** ****** ****** ******
      ****** ****** ****** ****** ****** ****** ****** ****** ****** ******
      ****** ****** ****** ****** ****** ****** ****** ****** ****** ******
  12  ****** ****** ****** ****** ****** ****** ****** ****** ****** ******
      ****** ****** ****** ****** ****** ****** ****** ****** ****** ******
      ****** ****** ****** ****** ****** ****** ****** ****** ****** ******
  13  ****** ****** ****** ****** ****** ****** ****** ****** ****** ******
      ****** ****** ****** ****** ****** ****** ****** ****** ****** ******
      ****** ****** ****** ****** ****** ****** ****** ****** ****** ******
  14  ****** ****** ****** ****** ****** ****** ****** ****** ****** ******
      ****** ****** ****** ****** ****** ****** ****** ****** ****** ******
      ****** ****** ****** ****** ****** ****** ****** ****** ****** ******
  15  ****** ****** ****** ****** ****** ****** ****** ****** ****** ******
      ****** ****** ****** ****** ****** ****** ****** ****** ****** ******
      ****** ****** ****** ****** ****** ****** ****** ****** ****** ******
  16  ****** ****** ****** ****** ****** ****** ****** ****** ****** ******
      ****** ****** ****** ****** ****** ****** ****** ****** ****** ******
      ****** ****** ****** ****** ****** ****** ****** ****** ****** ******
  17  ****** ****** ****** ****** ****** ****** ****** ****** ****** ******
      ****** ****** ****** ****** ****** ****** ****** ****** ****** ******
      ****** ****** ****** ****** ****** ****** ****** ****** ****** ******
  18  ****** ****** ****** ****** ****** ****** ****** ****** ****** ******
      ****** ****** ****** ****** ****** ****** ****** ****** ****** ******
      ****** ****** ****** ****** ****** ****** ****** ****** ****** ******
  19  ****** ****** ****** ****** ****** ****** ****** ****** ****** ******
      ****** ****** ****** ****** ****** ****** ****** ****** ****** ******
      ****** ****** ****** ****** ****** ****** ****** ****** ****** ******
  20  ****** ****** ****** ****** ****** ****** ****** ****** ****** ******
      ****** ****** ****** ****** ****** ****** ****** ****** ****** ******
      ****** ****** ****** ****** ****** ****** ****** ****** ****** ******
  21  ****** ****** ****** ****** ****** ****** ****** ****** ****** ******
      ****** ****** ****** ****** ****** ****** ****** ****** ****** ******
      ****** ****** ****** ****** ****** ****** ****** ****** ****** ******
  22  ****** ****** ****** ****** ****** ****** ****** ****** ****** ******
      ****** ****** ****** ****** ****** ****** ****** ****** ****** ******
      ****** ****** ****** ****** ****** ****** ****** ****** ****** ******
  23  ****** ****** ****** ****** ****** ****** ****** ****** ****** ******
      ****** ****** ****** ****** ****** ****** ****** ****** ****** ******
      ****** ****** ****** ****** ****** ****** ****** ****** ****** ******
  24  ****** ****** ****** ****** ****** ****** ****** ****** ****** ******
      ****** ****** ****** ****** ****** ****** ****** ****** ****** ******
      ****** ****** ****** ****** ****** ****** ****** ****** ****** ******
  25  ****** ****** ****** ****** ****** ****** ****** ****** ****** ******
      ****** ****** ****** ****** ****** ****** ****** ****** ****** ******
      ****** ****** ****** ****** ****** ****** ****** ****** ****** ******

 HEAD WILL BE SAVED ON UNIT   51 AT END OF TIME STEP    1, STRESS PERIOD    6
1
  VOLUMETRIC BUDGET FOR ENTIRE MODEL AT END OF TIME STEP    1, STRESS PERIOD   6
  ------------------------------------------------------------------------------

     CUMULATIVE VOLUMES      L**3       RATES FOR THIS TIME STEP      L**3/T
     ------------------                 ------------------------

           IN:                                      IN:
           ---                                      ---
             STORAGE =    25081758.9304               STORAGE =           0.0000
       CONSTANT HEAD =   101264801.4397         CONSTANT HEAD =      191572.7511
               WELLS =           0.0000                 WELLS =           0.0000
            RECHARGE =    15097200.0000              RECHARGE =       55200.0000
      STREAM LEAKAGE =     3662447.4863        STREAM LEAKAGE =        6944.0100

            TOTAL IN =   145106207.8563              TOTAL IN =      253716.7611

          OUT:                                     OUT:
          ----                                     ----
             STORAGE =      925780.7547               STORAGE =       10057.2731
       CONSTANT HEAD =           0.0000         CONSTANT HEAD =           0.0000
               WELLS =    73054181.8536                 WELLS =      133310.5508
            RECHARGE =           0.0000              RECHARGE =           0.0000
      STREAM LEAKAGE =    71126245.8968        STREAM LEAKAGE =      110348.9355

           TOTAL OUT =   145106208.5051             TOTAL OUT =      253716.7594

            IN - OUT =          -0.6487              IN - OUT =       1.7023E-03

 PERCENT DISCREPANCY =          -0.00     PERCENT DISCREPANCY =           0.00






         TIME SUMMARY AT END OF TIME STEP    1 IN STRESS PERIOD    6
                    SECONDS     MINUTES      HOURS       DAYS        YEARS
                    -----------------------------------------------------------
   TIME STEP LENGTH 7.86240E+06 1.31040E+05  2184.0      91.000     0.24914    
 STRESS PERIOD TIME 7.86240E+06 1.31040E+05  2184.0      91.000     0.24914    
         TOTAL TIME 4.73472E+07 7.89120E+05  13152.      548.00      1.5003    
1
1
                            STRESS PERIOD NO.    7, LENGTH =   91.00000    
                            -----------------------------------------------

                              NUMBER OF TIME STEPS =     1

                               MULTIPLIER FOR DELT =     1.500

                            INITIAL TIME STEP SIZE =   91.00000    

 WELL NO.  LAYER   ROW   COL   STRESS RATE         
 --------------------------------------------------
      1      1     23     20     -0.3361E+05
      2      1     23      4     -0.3381E+05
      3      1      5     26     -0.3082E+05
      4      1     21     27     -0.3506E+05

      4 WELLS

                 RECHARGE =   0.00000    

 REUSING STREAM SEGMENT DATA FROM LAST STRESS PERIOD
 
 SOLVING FOR HEAD 


     7 CALLS TO PCG ROUTINE FOR TIME STEP   1 IN STRESS PERIOD    7
    26 TOTAL ITERATIONS

 OUTPUT CONTROL FOR STRESS PERIOD    7   TIME STEP    1
    SAVE BUDGET
    SAVE HEAD FOR ALL LAYERS
    PRINT HEAD FOR ALL LAYERS
 UBDSV2 SAVING "STREAMFLOW OUT  " ON UNIT  50 AT TIME STEP  1, STRESS PERIOD   7



 STREAM LISTING     PERIOD      7   STEP        1

 LAYER ROW COL. STREAM  RCH.  FLOW INTO     FLOW TO   FLOW OUT OF   OVRLND.     DIRECT     STREAM       STREAM     STREAM     STREAM   STREAMBED  STREAMBED
                SEG.NO.  NO.  STRM. RCH.    AQUIFER    STRM. RCH.    RUNOFF     PRECIP       ET          HEAD       DEPTH      WIDTH   CONDCTNC.   GRADIENT

   1   13    1     1     1    1.0000E+05 -2.3669E+03   1.0237E+05  0.000E+00  0.000E+00  0.000E+00  4.84070E+01  1.457E-01  2.000E+01  2.000E+04 -1.183E-01
   1   13    2     1     2    1.0237E+05 -4.3247E+03   1.0669E+05  0.000E+00  0.000E+00  0.000E+00  4.79326E+01  1.485E-01  2.000E+01  2.000E+04 -2.162E-01
   1   14    3     1     3    1.0669E+05 -2.9968E+03   1.0969E+05  0.000E+00  0.000E+00  0.000E+00  4.74585E+01  1.516E-01  2.000E+01  2.000E+04 -1.498E-01
   1   15    4     1     4    1.0969E+05 -2.5714E+03   1.1226E+05  0.000E+00  0.000E+00  0.000E+00  4.69835E+01  1.540E-01  2.000E+01  2.000E+04 -1.286E-01
   1   16    5     1     5    1.1226E+05 -2.3406E+03   1.1460E+05  0.000E+00  0.000E+00  0.000E+00  4.65083E+01  1.560E-01  2.000E+01  2.000E+04 -1.170E-01
   1   16    6     1     6    1.1460E+05 -2.2357E+03   1.1684E+05  0.000E+00  0.000E+00  0.000E+00  4.60329E+01  1.579E-01  2.000E+01  2.000E+04 -1.118E-01
   1   16    7     1     7    1.1684E+05 -2.4703E+03   1.1931E+05  0.000E+00  0.000E+00  0.000E+00  4.55575E+01  1.598E-01  2.000E+01  2.000E+04 -1.235E-01
   1   16    8     1     8    1.1931E+05 -2.6364E+03   1.2194E+05  0.000E+00  0.000E+00  0.000E+00  4.50823E+01  1.619E-01  2.000E+01  2.000E+04 -1.318E-01
   1   16    9     1     9    1.2194E+05 -2.7327E+03   1.2468E+05  0.000E+00  0.000E+00  0.000E+00  4.46072E+01  1.640E-01  2.000E+01  2.000E+04 -1.366E-01
   1   16   10     1    10    1.2468E+05 -2.7599E+03   1.2744E+05  0.000E+00  0.000E+00  0.000E+00  4.41321E+01  1.662E-01  2.000E+01  2.000E+04 -1.380E-01
   1   16   11     1    11    1.2744E+05 -2.7325E+03   1.3017E+05  0.000E+00  0.000E+00  0.000E+00  4.36570E+01  1.684E-01  2.000E+01  2.000E+04 -1.366E-01
   1   16   12     1    12    1.3017E+05 -3.4685E+03   1.3364E+05  0.000E+00  0.000E+00  0.000E+00  4.31822E+01  1.708E-01  2.000E+01  2.000E+04 -1.734E-01
   1   15   13     1    13    1.3364E+05 -3.2821E+03   1.3692E+05  0.000E+00  0.000E+00  0.000E+00  4.27075E+01  1.734E-01  2.000E+01  2.000E+04 -1.641E-01
   1   14   14     1    14    1.3692E+05 -3.3922E+03   1.4031E+05  0.000E+00  0.000E+00  0.000E+00  4.22328E+01  1.760E-01  2.000E+01  2.000E+04 -1.696E-01
   1   13   15     1    15    1.4031E+05 -3.7389E+03   1.4405E+05  0.000E+00  0.000E+00  0.000E+00  4.17582E+01  1.787E-01  2.000E+01  2.000E+04 -1.869E-01
   1   12   16     1    16    1.4405E+05 -4.9760E+03   1.4903E+05  0.000E+00  0.000E+00  0.000E+00  4.12842E+01  1.819E-01  2.000E+01  2.000E+04 -2.488E-01
   1   12   17     1    17    1.4903E+05 -3.1187E+03   1.5214E+05  0.000E+00  0.000E+00  0.000E+00  4.08099E+01  1.849E-01  2.000E+01  2.000E+04 -1.559E-01
   1   12   18     1    18    1.5214E+05 -2.9179E+03   1.5506E+05  0.000E+00  0.000E+00  0.000E+00  4.03349E+01  1.871E-01  2.000E+01  2.000E+04 -1.459E-01
   1   12   19     1    19    1.5506E+05 -3.7443E+03   1.5881E+05  0.000E+00  0.000E+00  0.000E+00  3.98600E+01  1.896E-01  2.000E+01  2.000E+04 -1.872E-01
   1   13   20     1    20    1.5881E+05 -2.1469E+03   1.6095E+05  0.000E+00  0.000E+00  0.000E+00  3.93849E+01  1.917E-01  2.000E+01  2.000E+04 -1.073E-01
   1   14   21     1    21    1.6095E+05 -1.1475E+03   1.6210E+05  0.000E+00  0.000E+00  0.000E+00  3.89088E+01  1.929E-01  2.000E+01  2.000E+04 -5.738E-02
   1   14   22     1    22    1.6210E+05  5.3541E+03   1.5675E+05  0.000E+00  0.000E+00  0.000E+00  3.84300E+01  1.914E-01  2.000E+01  2.000E+04  2.677E-01
   1    9   30     2     1    5.0000E+04 -1.2312E+03   5.1231E+04  0.000E+00  0.000E+00  0.000E+00  4.02417E+01  1.167E-01  2.000E+01  2.000E+04 -6.156E-02
   1    9   29     2     2    5.1231E+04 -1.3985E+03   5.2630E+04  0.000E+00  0.000E+00  0.000E+00  3.99935E+01  1.185E-01  2.000E+01  2.000E+04 -6.992E-02
   1    9   28     2     3    5.2630E+04 -1.4312E+03   5.4061E+04  0.000E+00  0.000E+00  0.000E+00  3.97455E+01  1.205E-01  2.000E+01  2.000E+04 -7.156E-02
   1    9   27     2     4    5.4061E+04 -2.6440E+03   5.6705E+04  0.000E+00  0.000E+00  0.000E+00  3.94982E+01  1.232E-01  2.000E+01  2.000E+04 -1.322E-01
   1   10   26     2     5    5.6705E+04 -1.8220E+03   5.8527E+04  0.000E+00  0.000E+00  0.000E+00  3.92512E+01  1.262E-01  2.000E+01  2.000E+04 -9.110E-02
   1   11   25     2     6    5.8527E+04 -1.5475E+03   6.0074E+04  0.000E+00  0.000E+00  0.000E+00  3.90034E+01  1.284E-01  2.000E+01  2.000E+04 -7.737E-02
   1   12   24     2     7    6.0074E+04 -1.1620E+03   6.1236E+04  0.000E+00  0.000E+00  0.000E+00  3.87551E+01  1.301E-01  2.000E+01  2.000E+04 -5.810E-02
   1   13   23     2     8    6.1236E+04 -6.6125E+02   6.1898E+04  0.000E+00  0.000E+00  0.000E+00  3.85063E+01  1.313E-01  2.000E+01  2.000E+04 -3.306E-02
   1   14   22     2     9    6.1898E+04  1.8642E+03   6.0033E+04  0.000E+00  0.000E+00  0.000E+00  3.82555E+01  1.305E-01  2.000E+01  2.000E+04  9.321E-02
   1   14   22     3     1    2.1678E+05 -8.2723E+03   2.2505E+05  0.000E+00  0.000E+00  0.000E+00  3.77487E+01  1.931E-01  2.000E+01  2.000E+04 -4.136E-01
   1   15   23     3     2    2.2505E+05 -1.2931E+03   2.2635E+05  0.000E+00  0.000E+00  0.000E+00  3.68623E+01  1.956E-01  2.000E+01  2.000E+04 -6.466E-02
   1   15   24     3     3    2.2635E+05 -8.6059E+02   2.2721E+05  0.000E+00  0.000E+00  0.000E+00  3.59740E+01  1.962E-01  2.000E+01  2.000E+04 -4.303E-02
   1   15   25     3     4    2.2721E+05 -8.1900E+02   2.2803E+05  0.000E+00  0.000E+00  0.000E+00  3.50855E+01  1.966E-01  2.000E+01  2.000E+04 -4.095E-02
   1   15   26     3     5    2.2803E+05 -1.3522E+03   2.2938E+05  0.000E+00  0.000E+00  0.000E+00  3.41972E+01  1.972E-01  2.000E+01  2.000E+04 -6.761E-02
   1   16   27     3     6    2.2938E+05 -1.0021E+03   2.3038E+05  0.000E+00  0.000E+00  0.000E+00  3.33089E+01  1.978E-01  2.000E+01  2.000E+04 -5.010E-02
   1   17   28     3     7    2.3038E+05 -5.6815E+02   2.3095E+05  0.000E+00  0.000E+00  0.000E+00  3.24204E+01  1.982E-01  2.000E+01  2.000E+04 -2.841E-02
   1   18   29     3     8    2.3095E+05 -4.2198E+02   2.3137E+05  0.000E+00  0.000E+00  0.000E+00  3.15318E+01  1.984E-01  2.000E+01  2.000E+04 -2.110E-02
   1   18   30     3     9    2.3137E+05 -1.9303E+03   2.3330E+05  0.000E+00  0.000E+00  0.000E+00  3.06435E+01  1.991E-01  2.000E+01  2.000E+04 -9.651E-02



1
              HEAD IN LAYER   1 AT END OF TIME STEP   1 IN STRESS PERIOD    7
  ---------------------------------------------------------------------------

          1      2      3      4      5      6      7      8      9     10
         11     12     13     14     15     16     17     18     19     20
         21     22     23     24     25     26     27     28     29     30
 .........................................................................
   1  ****** ****** ****** ****** ****** ****** ****** ****** ****** ******
      ****** ****** ****** ****** ****** ****** ****** ****** ****** ******
      ****** ****** ****** ****** ****** ****** ****** ****** ****** ******
   2  ****** ****** ****** ****** ****** ****** ****** ****** ****** ******
      ****** ****** ****** ****** ****** ****** ****** ****** ****** ******
      ****** ****** ****** ****** ****** ****** ****** ****** ****** ******
   3  ****** ****** ****** ****** ****** ****** ****** ****** ****** ******
      ****** ****** ****** ****** ****** ****** ****** ****** ****** ******
      ****** ****** ****** ****** ****** ****** ****** ****** ****** ******
   4  ****** ****** ****** ****** ****** ****** ****** ****** ****** ******
      ****** ****** ****** ****** ****** ****** ****** ****** ****** ******
      ****** ****** ****** ****** ****** ****** ****** ****** ****** ******
   5  ****** ****** ****** ****** ****** ****** ****** ****** ****** ******
      ****** ****** ****** ****** ****** ****** ****** ****** ****** ******
      ****** ****** ****** ****** ****** ****** ****** ****** ****** ******
   6  ****** ****** ****** ****** ****** ****** ****** ****** ****** ******
      ****** ****** ****** ****** ****** ****** ****** ****** ****** ******
      ****** ****** ****** ****** ****** ****** ****** ****** ****** ******
   7  ****** ****** ****** ****** ****** ****** ****** ****** ****** ******
      ****** ****** ****** ****** ****** ****** ****** ****** ****** ******
      ****** ****** ****** ****** ****** ****** ****** ****** ****** ******
   8  ****** ****** ****** ****** ****** ****** ****** ****** ****** ******
      ****** ****** ****** ****** ****** ****** ****** ****** ****** ******
      ****** ****** ****** ****** ****** ****** ****** ****** ****** ******
   9  ****** ****** ****** ****** ****** ****** ****** ****** ****** ******
      ****** ****** ****** ****** ****** ****** ****** ****** ****** ******
      ****** ****** ****** ****** ****** ****** ****** ****** ****** ******
  10  ****** ****** ****** ****** ****** ****** ****** ****** ****** ******
      ****** ****** ****** ****** ****** ****** ****** ****** ****** ******
      ****** ****** ****** ****** ****** ****** ****** ****** ****** ******
  11  ****** ****** ****** ****** ****** ****** ****** ****** ****** ******
      ****** ****** ****** ****** ****** ****** ****** ****** ****** ******
      ****** ****** ****** ****** ****** ****** ****** ****** ****** ******
  12  ****** ****** ****** ****** ****** ****** ****** ****** ****** ******
      ****** ****** ****** ****** ****** ****** ****** ****** ****** ******
      ****** ****** ****** ****** ****** ****** ****** ****** ****** ******
  13  ****** ****** ****** ****** ****** ****** ****** ****** ****** ******
      ****** ****** ****** ****** ****** ****** ****** ****** ****** ******
      ****** ****** ****** ****** ****** ****** ****** ****** ****** ******
  14  ****** ****** ****** ****** ****** ****** ****** ****** ****** ******
      ****** ****** ****** ****** ****** ****** ****** ****** ****** ******
      ****** ****** ****** ****** ****** ****** ****** ****** ****** ******
  15  ****** ****** ****** ****** ****** ****** ****** ****** ****** ******
      ****** ****** ****** ****** ****** ****** ****** ****** ****** ******
      ****** ****** ****** ****** ****** ****** ****** ****** ****** ******
  16  ****** ****** ****** ****** ****** ****** ****** ****** ****** ******
      ****** ****** ****** ****** ****** ****** ****** ****** ****** ******
      ****** ****** ****** ****** ****** ****** ****** ****** ****** ******
  17  ****** ****** ****** ****** ****** ****** ****** ****** ****** ******
      ****** ****** ****** ****** ****** ****** ****** ****** ****** ******
      ****** ****** ****** ****** ****** ****** ****** ****** ****** ******
  18  ****** ****** ****** ****** ****** ****** ****** ****** ****** ******
      ****** ****** ****** ****** ****** ****** ****** ****** ****** ******
      ****** ****** ****** ****** ****** ****** ****** ****** ****** ******
  19  ****** ****** ****** ****** ****** ****** ****** ****** ****** ******
      ****** ****** ****** ****** ****** ****** ****** ****** ****** ******
      ****** ****** ****** ****** ****** ****** ****** ****** ****** ******
  20  ****** ****** ****** ****** ****** ****** ****** ****** ****** ******
      ****** ****** ****** ****** ****** ****** ****** ****** ****** ******
      ****** ****** ****** ****** ****** ****** ****** ****** ****** ******
  21  ****** ****** ****** ****** ****** ****** ****** ****** ****** ******
      ****** ****** ****** ****** ****** ****** ****** ****** ****** ******
      ****** ****** ****** ****** ****** ****** ****** ****** ****** ******
  22  ****** ****** ****** ****** ****** ****** ****** ****** ****** ******
      ****** ****** ****** ****** ****** ****** ****** ****** ****** ******
      ****** ****** ****** ****** ****** ****** ****** ****** ****** ******
  23  ****** ****** ****** ****** ****** ****** ****** ****** ****** ******
      ****** ****** ****** ****** ****** ****** ****** ****** ****** ******
      ****** ****** ****** ****** ****** ****** ****** ****** ****** ******
  24  ****** ****** ****** ****** ****** ****** ****** ****** ****** ******
      ****** ****** ****** ****** ****** ****** ****** ****** ****** ******
      ****** ****** ****** ****** ****** ****** ****** ****** ****** ******
  25  ****** ****** ****** ****** ****** ****** ****** ****** ****** ******
      ****** ****** ****** ****** ****** ****** ****** ****** ****** ******
      ****** ****** ****** ****** ****** ****** ****** ****** ****** ******

 HEAD WILL BE SAVED ON UNIT   51 AT END OF TIME STEP    1, STRESS PERIOD    7
1
  VOLUMETRIC BUDGET FOR ENTIRE MODEL AT END OF TIME STEP    1, STRESS PERIOD   7
  ------------------------------------------------------------------------------

     CUMULATIVE VOLUMES      L**3       RATES FOR THIS TIME STEP      L**3/T
     ------------------                 ------------------------

           IN:                                      IN:
           ---                                      ---
             STORAGE =    26184569.2058               STORAGE =       12118.7942
       CONSTANT HEAD =   119873551.5538         CONSTANT HEAD =      204491.7595
               WELLS =           0.0000                 WELLS =           0.0000
            RECHARGE =    15097200.0000              RECHARGE =           0.0000
      STREAM LEAKAGE =     4319316.3392        STREAM LEAKAGE =        7218.3390

            TOTAL IN =   165474637.0988              TOTAL IN =      223828.8928

          OUT:                                     OUT:
          ----                                     ----
             STORAGE =      925780.7547               STORAGE =           0.0000
       CONSTANT HEAD =           0.0000         CONSTANT HEAD =           0.0000
               WELLS =    85185441.9789                 WELLS =      133310.5508
            RECHARGE =           0.0000              RECHARGE =           0.0000
      STREAM LEAKAGE =    79363415.2173        STREAM LEAKAGE =       90518.3442

           TOTAL OUT =   165474637.9509             TOTAL OUT =      223828.8950

            IN - OUT =          -0.8522              IN - OUT =      -2.2353E-03

 PERCENT DISCREPANCY =          -0.00     PERCENT DISCREPANCY =          -0.00






         TIME SUMMARY AT END OF TIME STEP    1 IN STRESS PERIOD    7
                    SECONDS     MINUTES      HOURS       DAYS        YEARS
                    -----------------------------------------------------------
   TIME STEP LENGTH 7.86240E+06 1.31040E+05  2184.0      91.000     0.24914    
 STRESS PERIOD TIME 7.86240E+06 1.31040E+05  2184.0      91.000     0.24914    
         TOTAL TIME 5.52096E+07 9.20160E+05  15336.      639.00      1.7495    
1
1
                            STRESS PERIOD NO.    8, LENGTH =   91.00000    
                            -----------------------------------------------

                              NUMBER OF TIME STEPS =     1

                               MULTIPLIER FOR DELT =     1.500

                            INITIAL TIME STEP SIZE =   91.00000    

 WELL NO.  LAYER   ROW   COL   STRESS RATE         
 --------------------------------------------------
      1      1     23     20     -0.3361E+05
      2      1     23      4     -0.3381E+05
      3      1      5     26     -0.3082E+05
      4      1     21     27     -0.3506E+05

      4 WELLS

                 RECHARGE =  1.000000E-03

 REUSING STREAM SEGMENT DATA FROM LAST STRESS PERIOD
 
 SOLVING FOR HEAD 


     6 CALLS TO PCG ROUTINE FOR TIME STEP   1 IN STRESS PERIOD    8
    23 TOTAL ITERATIONS

 OUTPUT CONTROL FOR STRESS PERIOD    8   TIME STEP    1
    SAVE BUDGET
    SAVE HEAD FOR ALL LAYERS
    PRINT HEAD FOR ALL LAYERS
 UBDSV2 SAVING "STREAMFLOW OUT  " ON UNIT  50 AT TIME STEP  1, STRESS PERIOD   8



 STREAM LISTING     PERIOD      8   STEP        1

 LAYER ROW COL. STREAM  RCH.  FLOW INTO     FLOW TO   FLOW OUT OF   OVRLND.     DIRECT     STREAM       STREAM     STREAM     STREAM   STREAMBED  STREAMBED
                SEG.NO.  NO.  STRM. RCH.    AQUIFER    STRM. RCH.    RUNOFF     PRECIP       ET          HEAD       DEPTH      WIDTH   CONDCTNC.   GRADIENT

   1   13    1     1     1    1.0000E+05 -2.5361E+03   1.0254E+05  0.000E+00  0.000E+00  0.000E+00  4.84071E+01  1.457E-01  2.000E+01  2.000E+04 -1.268E-01
   1   13    2     1     2    1.0254E+05 -4.5360E+03   1.0707E+05  0.000E+00  0.000E+00  0.000E+00  4.79329E+01  1.488E-01  2.000E+01  2.000E+04 -2.268E-01
   1   14    3     1     3    1.0707E+05 -3.2310E+03   1.1030E+05  0.000E+00  0.000E+00  0.000E+00  4.74589E+01  1.521E-01  2.000E+01  2.000E+04 -1.616E-01
   1   15    4     1     4    1.1030E+05 -2.8086E+03   1.1311E+05  0.000E+00  0.000E+00  0.000E+00  4.69841E+01  1.546E-01  2.000E+01  2.000E+04 -1.404E-01
   1   16    5     1     5    1.1311E+05 -2.5607E+03   1.1567E+05  0.000E+00  0.000E+00  0.000E+00  4.65091E+01  1.568E-01  2.000E+01  2.000E+04 -1.280E-01
   1   16    6     1     6    1.1567E+05 -2.4104E+03   1.1808E+05  0.000E+00  0.000E+00  0.000E+00  4.60338E+01  1.588E-01  2.000E+01  2.000E+04 -1.205E-01
   1   16    7     1     7    1.1808E+05 -2.6465E+03   1.2073E+05  0.000E+00  0.000E+00  0.000E+00  4.55586E+01  1.609E-01  2.000E+01  2.000E+04 -1.323E-01
   1   16    8     1     8    1.2073E+05 -2.8136E+03   1.2354E+05  0.000E+00  0.000E+00  0.000E+00  4.50835E+01  1.631E-01  2.000E+01  2.000E+04 -1.407E-01
   1   16    9     1     9    1.2354E+05 -2.9099E+03   1.2645E+05  0.000E+00  0.000E+00  0.000E+00  4.46086E+01  1.654E-01  2.000E+01  2.000E+04 -1.455E-01
   1   16   10     1    10    1.2645E+05 -2.9360E+03   1.2939E+05  0.000E+00  0.000E+00  0.000E+00  4.41336E+01  1.677E-01  2.000E+01  2.000E+04 -1.468E-01
   1   16   11     1    11    1.2939E+05 -2.9069E+03   1.3230E+05  0.000E+00  0.000E+00  0.000E+00  4.36586E+01  1.700E-01  2.000E+01  2.000E+04 -1.453E-01
   1   16   12     1    12    1.3230E+05 -3.6886E+03   1.3598E+05  0.000E+00  0.000E+00  0.000E+00  4.31839E+01  1.725E-01  2.000E+01  2.000E+04 -1.844E-01
   1   15   13     1    13    1.3598E+05 -3.5215E+03   1.3951E+05  0.000E+00  0.000E+00  0.000E+00  4.27094E+01  1.753E-01  2.000E+01  2.000E+04 -1.761E-01
   1   14   14     1    14    1.3951E+05 -3.6338E+03   1.4314E+05  0.000E+00  0.000E+00  0.000E+00  4.22348E+01  1.780E-01  2.000E+01  2.000E+04 -1.817E-01
   1   13   15     1    15    1.4314E+05 -3.9749E+03   1.4711E+05  0.000E+00  0.000E+00  0.000E+00  4.17604E+01  1.809E-01  2.000E+01  2.000E+04 -1.987E-01
   1   12   16     1    16    1.4711E+05 -5.1904E+03   1.5230E+05  0.000E+00  0.000E+00  0.000E+00  4.12866E+01  1.843E-01  2.000E+01  2.000E+04 -2.595E-01
   1   12   17     1    17    1.5230E+05 -3.2896E+03   1.5559E+05  0.000E+00  0.000E+00  0.000E+00  4.08124E+01  1.874E-01  2.000E+01  2.000E+04 -1.645E-01
   1   12   18     1    18    1.5559E+05 -3.0886E+03   1.5868E+05  0.000E+00  0.000E+00  0.000E+00  4.03374E+01  1.897E-01  2.000E+01  2.000E+04 -1.544E-01
   1   12   19     1    19    1.5868E+05 -3.9529E+03   1.6264E+05  0.000E+00  0.000E+00  0.000E+00  3.98627E+01  1.923E-01  2.000E+01  2.000E+04 -1.976E-01
   1   13   20     1    20    1.6264E+05 -2.3638E+03   1.6500E+05  0.000E+00  0.000E+00  0.000E+00  3.93877E+01  1.945E-01  2.000E+01  2.000E+04 -1.182E-01
   1   14   21     1    21    1.6500E+05 -1.3428E+03   1.6634E+05  0.000E+00  0.000E+00  0.000E+00  3.89117E+01  1.958E-01  2.000E+01  2.000E+04 -6.714E-02
   1   14   22     1    22    1.6634E+05  5.3092E+03   1.6103E+05  0.000E+00  0.000E+00  0.000E+00  3.84331E+01  1.944E-01  2.000E+01  2.000E+04  2.655E-01
   1    9   30     2     1    5.0000E+04 -1.4101E+03   5.1410E+04  0.000E+00  0.000E+00  0.000E+00  4.02418E+01  1.168E-01  2.000E+01  2.000E+04 -7.051E-02
   1    9   29     2     2    5.1410E+04 -1.5756E+03   5.2986E+04  0.000E+00  0.000E+00  0.000E+00  3.99939E+01  1.189E-01  2.000E+01  2.000E+04 -7.878E-02
   1    9   28     2     3    5.2986E+04 -1.6057E+03   5.4591E+04  0.000E+00  0.000E+00  0.000E+00  3.97461E+01  1.211E-01  2.000E+01  2.000E+04 -8.028E-02
   1    9   27     2     4    5.4591E+04 -2.8632E+03   5.7455E+04  0.000E+00  0.000E+00  0.000E+00  3.94990E+01  1.240E-01  2.000E+01  2.000E+04 -1.432E-01
   1   10   26     2     5    5.7455E+04 -2.0581E+03   5.9513E+04  0.000E+00  0.000E+00  0.000E+00  3.92523E+01  1.273E-01  2.000E+01  2.000E+04 -1.029E-01
   1   11   25     2     6    5.9513E+04 -1.7771E+03   6.1290E+04  0.000E+00  0.000E+00  0.000E+00  3.90048E+01  1.298E-01  2.000E+01  2.000E+04 -8.886E-02
   1   12   24     2     7    6.1290E+04 -1.3706E+03   6.2660E+04  0.000E+00  0.000E+00  0.000E+00  3.87568E+01  1.318E-01  2.000E+01  2.000E+04 -6.853E-02
   1   13   23     2     8    6.2660E+04 -8.3071E+02   6.3491E+04  0.000E+00  0.000E+00  0.000E+00  3.85082E+01  1.332E-01  2.000E+01  2.000E+04 -4.154E-02
   1   14   22     2     9    6.3491E+04  1.7997E+03   6.1691E+04  0.000E+00  0.000E+00  0.000E+00  3.82576E+01  1.326E-01  2.000E+01  2.000E+04  8.999E-02
   1   14   22     3     1    2.2272E+05 -8.3160E+03   2.3104E+05  0.000E+00  0.000E+00  0.000E+00  3.77518E+01  1.962E-01  2.000E+01  2.000E+04 -4.158E-01
   1   15   23     3     2    2.3104E+05 -1.4763E+03   2.3252E+05  0.000E+00  0.000E+00  0.000E+00  3.68654E+01  1.988E-01  2.000E+01  2.000E+04 -7.382E-02
   1   15   24     3     3    2.3252E+05 -1.0043E+03   2.3352E+05  0.000E+00  0.000E+00  0.000E+00  3.59772E+01  1.994E-01  2.000E+01  2.000E+04 -5.022E-02
   1   15   25     3     4    2.3352E+05 -9.6764E+02   2.3449E+05  0.000E+00  0.000E+00  0.000E+00  3.50888E+01  1.999E-01  2.000E+01  2.000E+04 -4.838E-02
   1   15   26     3     5    2.3449E+05 -1.5467E+03   2.3604E+05  0.000E+00  0.000E+00  0.000E+00  3.42006E+01  2.006E-01  2.000E+01  2.000E+04 -7.734E-02
   1   16   27     3     6    2.3604E+05 -1.2358E+03   2.3727E+05  0.000E+00  0.000E+00  0.000E+00  3.33124E+01  2.013E-01  2.000E+01  2.000E+04 -6.179E-02
   1   17   28     3     7    2.3727E+05 -8.0430E+02   2.3808E+05  0.000E+00  0.000E+00  0.000E+00  3.24240E+01  2.018E-01  2.000E+01  2.000E+04 -4.021E-02
   1   18   29     3     8    2.3808E+05 -6.3772E+02   2.3871E+05  0.000E+00  0.000E+00  0.000E+00  3.15355E+01  2.022E-01  2.000E+01  2.000E+04 -3.189E-02
   1   18   30     3     9    2.3871E+05 -2.1005E+03   2.4081E+05  0.000E+00  0.000E+00  0.000E+00  3.06473E+01  2.028E-01  2.000E+01  2.000E+04 -1.050E-01



1
              HEAD IN LAYER   1 AT END OF TIME STEP   1 IN STRESS PERIOD    8
  ---------------------------------------------------------------------------

          1      2      3      4      5      6      7      8      9     10
         11     12     13     14     15     16     17     18     19     20
         21     22     23     24     25     26     27     28     29     30
 .........................................................................
   1  ****** ****** ****** ****** ****** ****** ****** ****** ****** ******
      ****** ****** ****** ****** ****** ****** ****** ****** ****** ******
      ****** ****** ****** ****** ****** ****** ****** ****** ****** ******
   2  ****** ****** ****** ****** ****** ****** ****** ****** ****** ******
      ****** ****** ****** ****** ****** ****** ****** ****** ****** ******
      ****** ****** ****** ****** ****** ****** ****** ****** ****** ******
   3  ****** ****** ****** ****** ****** ****** ****** ****** ****** ******
      ****** ****** ****** ****** ****** ****** ****** ****** ****** ******
      ****** ****** ****** ****** ****** ****** ****** ****** ****** ******
   4  ****** ****** ****** ****** ****** ****** ****** ****** ****** ******
      ****** ****** ****** ****** ****** ****** ****** ****** ****** ******
      ****** ****** ****** ****** ****** ****** ****** ****** ****** ******
   5  ****** ****** ****** ****** ****** ****** ****** ****** ****** ******
      ****** ****** ****** ****** ****** ****** ****** ****** ****** ******
      ****** ****** ****** ****** ****** ****** ****** ****** ****** ******
   6  ****** ****** ****** ****** ****** ****** ****** ****** ****** ******
      ****** ****** ****** ****** ****** ****** ****** ****** ****** ******
      ****** ****** ****** ****** ****** ****** ****** ****** ****** ******
   7  ****** ****** ****** ****** ****** ****** ****** ****** ****** ******
      ****** ****** ****** ****** ****** ****** ****** ****** ****** ******
      ****** ****** ****** ****** ****** ****** ****** ****** ****** ******
   8  ****** ****** ****** ****** ****** ****** ****** ****** ****** ******
      ****** ****** ****** ****** ****** ****** ****** ****** ****** ******
      ****** ****** ****** ****** ****** ****** ****** ****** ****** ******
   9  ****** ****** ****** ****** ****** ****** ****** ****** ****** ******
      ****** ****** ****** ****** ****** ****** ****** ****** ****** ******
      ****** ****** ****** ****** ****** ****** ****** ****** ****** ******
  10  ****** ****** ****** ****** ****** ****** ****** ****** ****** ******
      ****** ****** ****** ****** ****** ****** ****** ****** ****** ******
      ****** ****** ****** ****** ****** ****** ****** ****** ****** ******
  11  ****** ****** ****** ****** ****** ****** ****** ****** ****** ******
      ****** ****** ****** ****** ****** ****** ****** ****** ****** ******
      ****** ****** ****** ****** ****** ****** ****** ****** ****** ******
  12  ****** ****** ****** ****** ****** ****** ****** ****** ****** ******
      ****** ****** ****** ****** ****** ****** ****** ****** ****** ******
      ****** ****** ****** ****** ****** ****** ****** ****** ****** ******
  13  ****** ****** ****** ****** ****** ****** ****** ****** ****** ******
      ****** ****** ****** ****** ****** ****** ****** ****** ****** ******
      ****** ****** ****** ****** ****** ****** ****** ****** ****** ******
  14  ****** ****** ****** ****** ****** ****** ****** ****** ****** ******
      ****** ****** ****** ****** ****** ****** ****** ****** ****** ******
      ****** ****** ****** ****** ****** ****** ****** ****** ****** ******
  15  ****** ****** ****** ****** ****** ****** ****** ****** ****** ******
      ****** ****** ****** ****** ****** ****** ****** ****** ****** ******
      ****** ****** ****** ****** ****** ****** ****** ****** ****** ******
  16  ****** ****** ****** ****** ****** ****** ****** ****** ****** ******
      ****** ****** ****** ****** ****** ****** ****** ****** ****** ******
      ****** ****** ****** ****** ****** ****** ****** ****** ****** ******
  17  ****** ****** ****** ****** ****** ****** ****** ****** ****** ******
      ****** ****** ****** ****** ****** ****** ****** ****** ****** ******
      ****** ****** ****** ****** ****** ****** ****** ****** ****** ******
  18  ****** ****** ****** ****** ****** ****** ****** ****** ****** ******
      ****** ****** ****** ****** ****** ****** ****** ****** ****** ******
      ****** ****** ****** ****** ****** ****** ****** ****** ****** ******
  19  ****** ****** ****** ****** ****** ****** ****** ****** ****** ******
      ****** ****** ****** ****** ****** ****** ****** ****** ****** ******
      ****** ****** ****** ****** ****** ****** ****** ****** ****** ******
  20  ****** ****** ****** ****** ****** ****** ****** ****** ****** ******
      ****** ****** ****** ****** ****** ****** ****** ****** ****** ******
      ****** ****** ****** ****** ****** ****** ****** ****** ****** ******
  21  ****** ****** ****** ****** ****** ****** ****** ****** ****** ******
      ****** ****** ****** ****** ****** ****** ****** ****** ****** ******
      ****** ****** ****** ****** ****** ****** ****** ****** ****** ******
  22  ****** ****** ****** ****** ****** ****** ****** ****** ****** ******
      ****** ****** ****** ****** ****** ****** ****** ****** ****** ******
      ****** ****** ****** ****** ****** ****** ****** ****** ****** ******
  23  ****** ****** ****** ****** ****** ****** ****** ****** ****** ******
      ****** ****** ****** ****** ****** ****** ****** ****** ****** ******
      ****** ****** ****** ****** ****** ****** ****** ****** ****** ******
  24  ****** ****** ****** ****** ****** ****** ****** ****** ****** ******
      ****** ****** ****** ****** ****** ****** ****** ****** ****** ******
      ****** ****** ****** ****** ****** ****** ****** ****** ****** ******
  25  ****** ****** ****** ****** ****** ****** ****** ****** ****** ******
      ****** ****** ****** ****** ****** ****** ****** ****** ****** ******
      ****** ****** ****** ****** ****** ****** ****** ****** ****** ******

 HEAD WILL BE SAVED ON UNIT   51 AT END OF TIME STEP    1, STRESS PERIOD    8
1
  VOLUMETRIC BUDGET FOR ENTIRE MODEL AT END OF TIME STEP    1, STRESS PERIOD   8
  ------------------------------------------------------------------------------

     CUMULATIVE VOLUMES      L**3       RATES FOR THIS TIME STEP      L**3/T
     ------------------                 ------------------------

           IN:                                      IN:
           ---                                      ---
             STORAGE =    26184569.2058               STORAGE =           0.0000
       CONSTANT HEAD =   138087506.1326         CONSTANT HEAD =      200153.3470
               WELLS =           0.0000                 WELLS =           0.0000
            RECHARGE =    17608800.0000              RECHARGE =       27600.0000
      STREAM LEAKAGE =     4966224.5628        STREAM LEAKAGE =        7108.8816

            TOTAL IN =   186847099.9012              TOTAL IN =      234862.2286

          OUT:                                     OUT:
          ----                                     ----
             STORAGE =     1255974.0666               STORAGE =        3628.4979
       CONSTANT HEAD =           0.0000         CONSTANT HEAD =           0.0000
               WELLS =    97316702.1042                 WELLS =      133310.5508
            RECHARGE =           0.0000              RECHARGE =           0.0000
      STREAM LEAKAGE =    88274424.5043        STREAM LEAKAGE =       97923.1790

           TOTAL OUT =   186847100.6752             TOTAL OUT =      234862.2277

            IN - OUT =          -0.7740              IN - OUT =       8.5832E-04

 PERCENT DISCREPANCY =          -0.00     PERCENT DISCREPANCY =           0.00






         TIME SUMMARY AT END OF TIME STEP    1 IN STRESS PERIOD    8
                    SECONDS     MINUTES      HOURS       DAYS        YEARS
                    -----------------------------------------------------------
   TIME STEP LENGTH 7.86240E+06 1.31040E+05  2184.0      91.000     0.24914    
 STRESS PERIOD TIME 7.86240E+06 1.31040E+05  2184.0      91.000     0.24914    
         TOTAL TIME 6.30720E+07 1.05120E+06  17520.      730.00      1.9986    
1
1
                            STRESS PERIOD NO.    9, LENGTH =   92.00000    
                            -----------------------------------------------

                              NUMBER OF TIME STEPS =     1

                               MULTIPLIER FOR DELT =     1.500

                            INITIAL TIME STEP SIZE =   92.00000    

 WELL NO.  LAYER   ROW   COL   STRESS RATE         
 --------------------------------------------------
      1      1     23     20     -0.3361E+05
      2      1     23      4     -0.3381E+05
      3      1      5     26     -0.3082E+05
      4      1     21     27     -0.3506E+05

      4 WELLS

                 RECHARGE =  5.000000E-04

 REUSING STREAM SEGMENT DATA FROM LAST STRESS PERIOD
 
 SOLVING FOR HEAD 


     6 CALLS TO PCG ROUTINE FOR TIME STEP   1 IN STRESS PERIOD    9
    22 TOTAL ITERATIONS

 OUTPUT CONTROL FOR STRESS PERIOD    9   TIME STEP    1
    SAVE BUDGET
    SAVE HEAD FOR ALL LAYERS
    PRINT HEAD FOR ALL LAYERS
 UBDSV2 SAVING "STREAMFLOW OUT  " ON UNIT  50 AT TIME STEP  1, STRESS PERIOD   9



 STREAM LISTING     PERIOD      9   STEP        1

 LAYER ROW COL. STREAM  RCH.  FLOW INTO     FLOW TO   FLOW OUT OF   OVRLND.     DIRECT     STREAM       STREAM     STREAM     STREAM   STREAMBED  STREAMBED
                SEG.NO.  NO.  STRM. RCH.    AQUIFER    STRM. RCH.    RUNOFF     PRECIP       ET          HEAD       DEPTH      WIDTH   CONDCTNC.   GRADIENT

   1   13    1     1     1    1.0000E+05 -2.4205E+03   1.0242E+05  0.000E+00  0.000E+00  0.000E+00  4.84071E+01  1.457E-01  2.000E+01  2.000E+04 -1.210E-01
   1   13    2     1     2    1.0242E+05 -4.3838E+03   1.0680E+05  0.000E+00  0.000E+00  0.000E+00  4.79327E+01  1.486E-01  2.000E+01  2.000E+04 -2.192E-01
   1   14    3     1     3    1.0680E+05 -3.0767E+03   1.0988E+05  0.000E+00  0.000E+00  0.000E+00  4.74586E+01  1.518E-01  2.000E+01  2.000E+04 -1.538E-01
   1   15    4     1     4    1.0988E+05 -2.6567E+03   1.1254E+05  0.000E+00  0.000E+00  0.000E+00  4.69837E+01  1.542E-01  2.000E+01  2.000E+04 -1.328E-01
   1   16    5     1     5    1.1254E+05 -2.4231E+03   1.1496E+05  0.000E+00  0.000E+00  0.000E+00  4.65085E+01  1.563E-01  2.000E+01  2.000E+04 -1.212E-01
   1   16    6     1     6    1.1496E+05 -2.2999E+03   1.1726E+05  0.000E+00  0.000E+00  0.000E+00  4.60332E+01  1.582E-01  2.000E+01  2.000E+04 -1.150E-01
   1   16    7     1     7    1.1726E+05 -2.5342E+03   1.1979E+05  0.000E+00  0.000E+00  0.000E+00  4.55579E+01  1.602E-01  2.000E+01  2.000E+04 -1.267E-01
   1   16    8     1     8    1.1979E+05 -2.7003E+03   1.2250E+05  0.000E+00  0.000E+00  0.000E+00  4.50828E+01  1.623E-01  2.000E+01  2.000E+04 -1.350E-01
   1   16    9     1     9    1.2250E+05 -2.7967E+03   1.2529E+05  0.000E+00  0.000E+00  0.000E+00  4.46077E+01  1.645E-01  2.000E+01  2.000E+04 -1.398E-01
   1   16   10     1    10    1.2529E+05 -2.8238E+03   1.2812E+05  0.000E+00  0.000E+00  0.000E+00  4.41326E+01  1.667E-01  2.000E+01  2.000E+04 -1.412E-01
   1   16   11     1    11    1.2812E+05 -2.7964E+03   1.3091E+05  0.000E+00  0.000E+00  0.000E+00  4.36576E+01  1.689E-01  2.000E+01  2.000E+04 -1.398E-01
   1   16   12     1    12    1.3091E+05 -3.5491E+03   1.3446E+05  0.000E+00  0.000E+00  0.000E+00  4.31828E+01  1.714E-01  2.000E+01  2.000E+04 -1.775E-01
   1   15   13     1    13    1.3446E+05 -3.3674E+03   1.3783E+05  0.000E+00  0.000E+00  0.000E+00  4.27082E+01  1.741E-01  2.000E+01  2.000E+04 -1.684E-01
   1   14   14     1    14    1.3783E+05 -3.4764E+03   1.4131E+05  0.000E+00  0.000E+00  0.000E+00  4.22335E+01  1.767E-01  2.000E+01  2.000E+04 -1.738E-01
   1   13   15     1    15    1.4131E+05 -3.8195E+03   1.4512E+05  0.000E+00  0.000E+00  0.000E+00  4.17590E+01  1.794E-01  2.000E+01  2.000E+04 -1.910E-01
   1   12   16     1    16    1.4512E+05 -5.0426E+03   1.5017E+05  0.000E+00  0.000E+00  0.000E+00  4.12850E+01  1.827E-01  2.000E+01  2.000E+04 -2.521E-01
   1   12   17     1    17    1.5017E+05 -3.1790E+03   1.5335E+05  0.000E+00  0.000E+00  0.000E+00  4.08108E+01  1.858E-01  2.000E+01  2.000E+04 -1.590E-01
   1   12   18     1    18    1.5335E+05 -2.9802E+03   1.5633E+05  0.000E+00  0.000E+00  0.000E+00  4.03358E+01  1.880E-01  2.000E+01  2.000E+04 -1.490E-01
   1   12   19     1    19    1.5633E+05 -3.8212E+03   1.6015E+05  0.000E+00  0.000E+00  0.000E+00  3.98610E+01  1.905E-01  2.000E+01  2.000E+04 -1.911E-01
   1   13   20     1    20    1.6015E+05 -2.2341E+03   1.6238E+05  0.000E+00  0.000E+00  0.000E+00  3.93859E+01  1.927E-01  2.000E+01  2.000E+04 -1.117E-01
   1   14   21     1    21    1.6238E+05 -1.2250E+03   1.6361E+05  0.000E+00  0.000E+00  0.000E+00  3.89098E+01  1.939E-01  2.000E+01  2.000E+04 -6.125E-02
   1   14   22     1    22    1.6361E+05  5.3330E+03   1.5827E+05  0.000E+00  0.000E+00  0.000E+00  3.84311E+01  1.925E-01  2.000E+01  2.000E+04  2.667E-01
   1    9   30     2     1    5.0000E+04 -1.3105E+03   5.1311E+04  0.000E+00  0.000E+00  0.000E+00  4.02418E+01  1.168E-01  2.000E+01  2.000E+04 -6.553E-02
   1    9   29     2     2    5.1311E+04 -1.4767E+03   5.2787E+04  0.000E+00  0.000E+00  0.000E+00  3.99937E+01  1.187E-01  2.000E+01  2.000E+04 -7.383E-02
   1    9   28     2     3    5.2787E+04 -1.5073E+03   5.4294E+04  0.000E+00  0.000E+00  0.000E+00  3.97457E+01  1.207E-01  2.000E+01  2.000E+04 -7.536E-02
   1    9   27     2     4    5.4294E+04 -2.7338E+03   5.7028E+04  0.000E+00  0.000E+00  0.000E+00  3.94986E+01  1.236E-01  2.000E+01  2.000E+04 -1.367E-01
   1   10   26     2     5    5.7028E+04 -1.9221E+03   5.8950E+04  0.000E+00  0.000E+00  0.000E+00  3.92516E+01  1.266E-01  2.000E+01  2.000E+04 -9.611E-02
   1   11   25     2     6    5.8950E+04 -1.6458E+03   6.0596E+04  0.000E+00  0.000E+00  0.000E+00  3.90040E+01  1.290E-01  2.000E+01  2.000E+04 -8.229E-02
   1   12   24     2     7    6.0596E+04 -1.2525E+03   6.1849E+04  0.000E+00  0.000E+00  0.000E+00  3.87558E+01  1.308E-01  2.000E+01  2.000E+04 -6.263E-02
   1   13   23     2     8    6.1849E+04 -7.3643E+02   6.2585E+04  0.000E+00  0.000E+00  0.000E+00  3.85071E+01  1.321E-01  2.000E+01  2.000E+04 -3.682E-02
   1   14   22     2     9    6.2585E+04  1.8393E+03   6.0746E+04  0.000E+00  0.000E+00  0.000E+00  3.82564E+01  1.314E-01  2.000E+01  2.000E+04  9.196E-02
   1   14   22     3     1    2.1902E+05 -8.2916E+03   2.2731E+05  0.000E+00  0.000E+00  0.000E+00  3.77499E+01  1.943E-01  2.000E+01  2.000E+04 -4.146E-01
   1   15   23     3     2    2.2731E+05 -1.3665E+03   2.2868E+05  0.000E+00  0.000E+00  0.000E+00  3.68635E+01  1.968E-01  2.000E+01  2.000E+04 -6.833E-02
   1   15   24     3     3    2.2868E+05 -9.2255E+02   2.2960E+05  0.000E+00  0.000E+00  0.000E+00  3.59752E+01  1.974E-01  2.000E+01  2.000E+04 -4.613E-02
   1   15   25     3     4    2.2960E+05 -8.8512E+02   2.3049E+05  0.000E+00  0.000E+00  0.000E+00  3.50868E+01  1.979E-01  2.000E+01  2.000E+04 -4.426E-02
   1   15   26     3     5    2.3049E+05 -1.4412E+03   2.3193E+05  0.000E+00  0.000E+00  0.000E+00  3.41985E+01  1.985E-01  2.000E+01  2.000E+04 -7.206E-02
   1   16   27     3     6    2.3193E+05 -1.1056E+03   2.3303E+05  0.000E+00  0.000E+00  0.000E+00  3.33102E+01  1.991E-01  2.000E+01  2.000E+04 -5.528E-02
   1   17   28     3     7    2.3303E+05 -6.7198E+02   2.3370E+05  0.000E+00  0.000E+00  0.000E+00  3.24218E+01  1.996E-01  2.000E+01  2.000E+04 -3.360E-02
   1   18   29     3     8    2.3370E+05 -5.1478E+02   2.3422E+05  0.000E+00  0.000E+00  0.000E+00  3.15332E+01  1.999E-01  2.000E+01  2.000E+04 -2.574E-02
   1   18   30     3     9    2.3422E+05 -2.0063E+03   2.3623E+05  0.000E+00  0.000E+00  0.000E+00  3.06450E+01  2.005E-01  2.000E+01  2.000E+04 -1.003E-01



1
              HEAD IN LAYER   1 AT END OF TIME STEP   1 IN STRESS PERIOD    9
  ---------------------------------------------------------------------------

          1      2      3      4      5      6      7      8      9     10
         11     12     13     14     15     16     17     18     19     20
         21     22     23     24     25     26     27     28     29     30
 .........................................................................
   1  ****** ****** ****** ****** ****** ****** ****** ****** ****** ******
      ****** ****** ****** ****** ****** ****** ****** ****** ****** ******
      ****** ****** ****** ****** ****** ****** ****** ****** ****** ******
   2  ****** ****** ****** ****** ****** ****** ****** ****** ****** ******
      ****** ****** ****** ****** ****** ****** ****** ****** ****** ******
      ****** ****** ****** ****** ****** ****** ****** ****** ****** ******
   3  ****** ****** ****** ****** ****** ****** ****** ****** ****** ******
      ****** ****** ****** ****** ****** ****** ****** ****** ****** ******
      ****** ****** ****** ****** ****** ****** ****** ****** ****** ******
   4  ****** ****** ****** ****** ****** ****** ****** ****** ****** ******
      ****** ****** ****** ****** ****** ****** ****** ****** ****** ******
      ****** ****** ****** ****** ****** ****** ****** ****** ****** ******
   5  ****** ****** ****** ****** ****** ****** ****** ****** ****** ******
      ****** ****** ****** ****** ****** ****** ****** ****** ****** ******
      ****** ****** ****** ****** ****** ****** ****** ****** ****** ******
   6  ****** ****** ****** ****** ****** ****** ****** ****** ****** ******
      ****** ****** ****** ****** ****** ****** ****** ****** ****** ******
      ****** ****** ****** ****** ****** ****** ****** ****** ****** ******
   7  ****** ****** ****** ****** ****** ****** ****** ****** ****** ******
      ****** ****** ****** ****** ****** ****** ****** ****** ****** ******
      ****** ****** ****** ****** ****** ****** ****** ****** ****** ******
   8  ****** ****** ****** ****** ****** ****** ****** ****** ****** ******
      ****** ****** ****** ****** ****** ****** ****** ****** ****** ******
      ****** ****** ****** ****** ****** ****** ****** ****** ****** ******
   9  ****** ****** ****** ****** ****** ****** ****** ****** ****** ******
      ****** ****** ****** ****** ****** ****** ****** ****** ****** ******
      ****** ****** ****** ****** ****** ****** ****** ****** ****** ******
  10  ****** ****** ****** ****** ****** ****** ****** ****** ****** ******
      ****** ****** ****** ****** ****** ****** ****** ****** ****** ******
      ****** ****** ****** ****** ****** ****** ****** ****** ****** ******
  11  ****** ****** ****** ****** ****** ****** ****** ****** ****** ******
      ****** ****** ****** ****** ****** ****** ****** ****** ****** ******
      ****** ****** ****** ****** ****** ****** ****** ****** ****** ******
  12  ****** ****** ****** ****** ****** ****** ****** ****** ****** ******
      ****** ****** ****** ****** ****** ****** ****** ****** ****** ******
      ****** ****** ****** ****** ****** ****** ****** ****** ****** ******
  13  ****** ****** ****** ****** ****** ****** ****** ****** ****** ******
      ****** ****** ****** ****** ****** ****** ****** ****** ****** ******
      ****** ****** ****** ****** ****** ****** ****** ****** ****** ******
  14  ****** ****** ****** ****** ****** ****** ****** ****** ****** ******
      ****** ****** ****** ****** ****** ****** ****** ****** ****** ******
      ****** ****** ****** ****** ****** ****** ****** ****** ****** ******
  15  ****** ****** ****** ****** ****** ****** ****** ****** ****** ******
      ****** ****** ****** ****** ****** ****** ****** ****** ****** ******
      ****** ****** ****** ****** ****** ****** ****** ****** ****** ******
  16  ****** ****** ****** ****** ****** ****** ****** ****** ****** ******
      ****** ****** ****** ****** ****** ****** ****** ****** ****** ******
      ****** ****** ****** ****** ****** ****** ****** ****** ****** ******
  17  ****** ****** ****** ****** ****** ****** ****** ****** ****** ******
      ****** ****** ****** ****** ****** ****** ****** ****** ****** ******
      ****** ****** ****** ****** ****** ****** ****** ****** ****** ******
  18  ****** ****** ****** ****** ****** ****** ****** ****** ****** ******
      ****** ****** ****** ****** ****** ****** ****** ****** ****** ******
      ****** ****** ****** ****** ****** ****** ****** ****** ****** ******
  19  ****** ****** ****** ****** ****** ****** ****** ****** ****** ******
      ****** ****** ****** ****** ****** ****** ****** ****** ****** ******
      ****** ****** ****** ****** ****** ****** ****** ****** ****** ******
  20  ****** ****** ****** ****** ****** ****** ****** ****** ****** ******
      ****** ****** ****** ****** ****** ****** ****** ****** ****** ******
      ****** ****** ****** ****** ****** ****** ****** ****** ****** ******
  21  ****** ****** ****** ****** ****** ****** ****** ****** ****** ******
      ****** ****** ****** ****** ****** ****** ****** ****** ****** ******
      ****** ****** ****** ****** ****** ****** ****** ****** ****** ******
  22  ****** ****** ****** ****** ****** ****** ****** ****** ****** ******
      ****** ****** ****** ****** ****** ****** ****** ****** ****** ******
      ****** ****** ****** ****** ****** ****** ****** ****** ****** ******
  23  ****** ****** ****** ****** ****** ****** ****** ****** ****** ******
      ****** ****** ****** ****** ****** ****** ****** ****** ****** ******
      ****** ****** ****** ****** ****** ****** ****** ****** ****** ******
  24  ****** ****** ****** ****** ****** ****** ****** ****** ****** ******
      ****** ****** ****** ****** ****** ****** ****** ****** ****** ******
      ****** ****** ****** ****** ****** ****** ****** ****** ****** ******
  25  ****** ****** ****** ****** ****** ****** ****** ****** ****** ******
      ****** ****** ****** ****** ****** ****** ****** ****** ****** ******
      ****** ****** ****** ****** ****** ****** ****** ****** ****** ******

 HEAD WILL BE SAVED ON UNIT   51 AT END OF TIME STEP    1, STRESS PERIOD    9
1
  VOLUMETRIC BUDGET FOR ENTIRE MODEL AT END OF TIME STEP    1, STRESS PERIOD   9
  ------------------------------------------------------------------------------

     CUMULATIVE VOLUMES      L**3       RATES FOR THIS TIME STEP      L**3/T
     ------------------                 ------------------------

           IN:                                      IN:
           ---                                      ---
             STORAGE =    26431373.5932               STORAGE =        2682.6564
       CONSTANT HEAD =   156768404.1305         CONSTANT HEAD =      203053.2391
               WELLS =           0.0000                 WELLS =           0.0000
            RECHARGE =    18878400.0000              RECHARGE =       13800.0000
      STREAM LEAKAGE =     5626074.3873        STREAM LEAKAGE =        7172.2807

            TOTAL IN =   207704252.1110              TOTAL IN =      226708.1762

          OUT:                                     OUT:
          ----                                     ----
             STORAGE =     1255974.0666               STORAGE =           0.0000
       CONSTANT HEAD =           0.0000         CONSTANT HEAD =           0.0000
               WELLS =   109581272.7804                 WELLS =      133310.5508
            RECHARGE =           0.0000              RECHARGE =           0.0000
      STREAM LEAKAGE =    96867006.3272        STREAM LEAKAGE =       93397.6285

           TOTAL OUT =   207704253.1742             TOTAL OUT =      226708.1793

            IN - OUT =          -1.0632              IN - OUT =      -3.1424E-03

 PERCENT DISCREPANCY =          -0.00     PERCENT DISCREPANCY =          -0.00






         TIME SUMMARY AT END OF TIME STEP    1 IN STRESS PERIOD    9
                    SECONDS     MINUTES      HOURS       DAYS        YEARS
                    -----------------------------------------------------------
   TIME STEP LENGTH 7.94880E+06 1.32480E+05  2208.0      92.000     0.25188    
 STRESS PERIOD TIME 7.94880E+06 1.32480E+05  2208.0      92.000     0.25188    
         TOTAL TIME 7.10208E+07 1.18368E+06  19728.      822.00      2.2505    
1
1
                            STRESS PERIOD NO.   10, LENGTH =   91.00000    
                            -----------------------------------------------

                              NUMBER OF TIME STEPS =     1

                               MULTIPLIER FOR DELT =     1.500

                            INITIAL TIME STEP SIZE =   91.00000    

 WELL NO.  LAYER   ROW   COL   STRESS RATE         
 --------------------------------------------------
      1      1     23     20     -0.3361E+05
      2      1     23      4     -0.3381E+05
      3      1      5     26     -0.3082E+05
      4      1     21     27     -0.3506E+05

      4 WELLS

                 RECHARGE =  2.000000E-03

 REUSING STREAM SEGMENT DATA FROM LAST STRESS PERIOD
 
 SOLVING FOR HEAD 


     7 CALLS TO PCG ROUTINE FOR TIME STEP   1 IN STRESS PERIOD   10
    26 TOTAL ITERATIONS

 OUTPUT CONTROL FOR STRESS PERIOD   10   TIME STEP    1
    SAVE BUDGET
    SAVE HEAD FOR ALL LAYERS
    PRINT HEAD FOR ALL LAYERS
 UBDSV2 SAVING "STREAMFLOW OUT  " ON UNIT  50 AT TIME STEP  1, STRESS PERIOD  10



 STREAM LISTING     PERIOD     10   STEP        1

 LAYER ROW COL. STREAM  RCH.  FLOW INTO     FLOW TO   FLOW OUT OF   OVRLND.     DIRECT     STREAM       STREAM     STREAM     STREAM   STREAMBED  STREAMBED
                SEG.NO.  NO.  STRM. RCH.    AQUIFER    STRM. RCH.    RUNOFF     PRECIP       ET          HEAD       DEPTH      WIDTH   CONDCTNC.   GRADIENT

   1   13    1     1     1    1.0000E+05 -2.8436E+03   1.0284E+05  0.000E+00  0.000E+00  0.000E+00  4.84072E+01  1.459E-01  2.000E+01  2.000E+04 -1.422E-01
   1   13    2     1     2    1.0284E+05 -4.9459E+03   1.0779E+05  0.000E+00  0.000E+00  0.000E+00  4.79333E+01  1.492E-01  2.000E+01  2.000E+04 -2.473E-01
   1   14    3     1     3    1.0779E+05 -3.6434E+03   1.1143E+05  0.000E+00  0.000E+00  0.000E+00  4.74597E+01  1.528E-01  2.000E+01  2.000E+04 -1.822E-01
   1   15    4     1     4    1.1143E+05 -3.2165E+03   1.1465E+05  0.000E+00  0.000E+00  0.000E+00  4.69852E+01  1.557E-01  2.000E+01  2.000E+04 -1.608E-01
   1   16    5     1     5    1.1465E+05 -2.9382E+03   1.1759E+05  0.000E+00  0.000E+00  0.000E+00  4.65105E+01  1.582E-01  2.000E+01  2.000E+04 -1.469E-01
   1   16    6     1     6    1.1759E+05 -2.7074E+03   1.2029E+05  0.000E+00  0.000E+00  0.000E+00  4.60355E+01  1.605E-01  2.000E+01  2.000E+04 -1.354E-01
   1   16    7     1     7    1.2029E+05 -2.9484E+03   1.2324E+05  0.000E+00  0.000E+00  0.000E+00  4.55605E+01  1.628E-01  2.000E+01  2.000E+04 -1.474E-01
   1   16    8     1     8    1.2324E+05 -3.1183E+03   1.2636E+05  0.000E+00  0.000E+00  0.000E+00  4.50857E+01  1.652E-01  2.000E+01  2.000E+04 -1.559E-01
   1   16    9     1     9    1.2636E+05 -3.2146E+03   1.2958E+05  0.000E+00  0.000E+00  0.000E+00  4.46109E+01  1.677E-01  2.000E+01  2.000E+04 -1.607E-01
   1   16   10     1    10    1.2958E+05 -3.2378E+03   1.3281E+05  0.000E+00  0.000E+00  0.000E+00  4.41362E+01  1.702E-01  2.000E+01  2.000E+04 -1.619E-01
   1   16   11     1    11    1.3281E+05 -3.2046E+03   1.3602E+05  0.000E+00  0.000E+00  0.000E+00  4.36614E+01  1.727E-01  2.000E+01  2.000E+04 -1.602E-01
   1   16   12     1    12    1.3602E+05 -4.0738E+03   1.4009E+05  0.000E+00  0.000E+00  0.000E+00  4.31869E+01  1.755E-01  2.000E+01  2.000E+04 -2.037E-01
   1   15   13     1    13    1.4009E+05 -3.9394E+03   1.4403E+05  0.000E+00  0.000E+00  0.000E+00  4.27127E+01  1.786E-01  2.000E+01  2.000E+04 -1.970E-01
   1   14   14     1    14    1.4403E+05 -4.0598E+03   1.4809E+05  0.000E+00  0.000E+00  0.000E+00  4.22384E+01  1.816E-01  2.000E+01  2.000E+04 -2.030E-01
   1   13   15     1    15    1.4809E+05 -4.3942E+03   1.5249E+05  0.000E+00  0.000E+00  0.000E+00  4.17643E+01  1.847E-01  2.000E+01  2.000E+04 -2.197E-01
   1   12   16     1    16    1.5249E+05 -5.5948E+03   1.5808E+05  0.000E+00  0.000E+00  0.000E+00  4.12906E+01  1.884E-01  2.000E+01  2.000E+04 -2.797E-01
   1   12   17     1    17    1.5808E+05 -3.5874E+03   1.6167E+05  0.000E+00  0.000E+00  0.000E+00  4.08167E+01  1.917E-01  2.000E+01  2.000E+04 -1.794E-01
   1   12   18     1    18    1.6167E+05 -3.3806E+03   1.6505E+05  0.000E+00  0.000E+00  0.000E+00  4.03419E+01  1.942E-01  2.000E+01  2.000E+04 -1.690E-01
   1   12   19     1    19    1.6505E+05 -4.3089E+03   1.6936E+05  0.000E+00  0.000E+00  0.000E+00  3.98674E+01  1.969E-01  2.000E+01  2.000E+04 -2.154E-01
   1   13   20     1    20    1.6936E+05 -2.7069E+03   1.7206E+05  0.000E+00  0.000E+00  0.000E+00  3.93926E+01  1.994E-01  2.000E+01  2.000E+04 -1.353E-01
   1   14   21     1    21    1.7206E+05 -1.6605E+03   1.7372E+05  0.000E+00  0.000E+00  0.000E+00  3.89168E+01  2.009E-01  2.000E+01  2.000E+04 -8.302E-02
   1   14   22     1    22    1.7372E+05  5.2503E+03   1.6847E+05  0.000E+00  0.000E+00  0.000E+00  3.84383E+01  1.997E-01  2.000E+01  2.000E+04  2.625E-01
   1    9   30     2     1    5.0000E+04 -1.6719E+03   5.1672E+04  0.000E+00  0.000E+00  0.000E+00  4.02420E+01  1.170E-01  2.000E+01  2.000E+04 -8.359E-02
   1    9   29     2     2    5.1672E+04 -1.8353E+03   5.3507E+04  0.000E+00  0.000E+00  0.000E+00  3.99944E+01  1.194E-01  2.000E+01  2.000E+04 -9.177E-02
   1    9   28     2     3    5.3507E+04 -1.8644E+03   5.5372E+04  0.000E+00  0.000E+00  0.000E+00  3.97469E+01  1.219E-01  2.000E+01  2.000E+04 -9.322E-02
   1    9   27     2     4    5.5372E+04 -3.2134E+03   5.8585E+04  0.000E+00  0.000E+00  0.000E+00  3.95003E+01  1.253E-01  2.000E+01  2.000E+04 -1.607E-01
   1   10   26     2     5    5.8585E+04 -2.4174E+03   6.1002E+04  0.000E+00  0.000E+00  0.000E+00  3.92540E+01  1.290E-01  2.000E+01  2.000E+04 -1.209E-01
   1   11   25     2     6    6.1002E+04 -2.1196E+03   6.3122E+04  0.000E+00  0.000E+00  0.000E+00  3.90069E+01  1.319E-01  2.000E+01  2.000E+04 -1.060E-01
   1   12   24     2     7    6.3122E+04 -1.6712E+03   6.4793E+04  0.000E+00  0.000E+00  0.000E+00  3.87593E+01  1.343E-01  2.000E+01  2.000E+04 -8.356E-02
   1   13   23     2     8    6.4793E+04 -1.0626E+03   6.5856E+04  0.000E+00  0.000E+00  0.000E+00  3.85110E+01  1.360E-01  2.000E+01  2.000E+04 -5.313E-02
   1   14   22     2     9    6.5856E+04  1.6971E+03   6.4159E+04  0.000E+00  0.000E+00  0.000E+00  3.82606E+01  1.356E-01  2.000E+01  2.000E+04  8.486E-02
   1   14   22     3     1    2.3263E+05 -8.3773E+03   2.4101E+05  0.000E+00  0.000E+00  0.000E+00  3.77569E+01  2.014E-01  2.000E+01  2.000E+04 -4.189E-01
   1   15   23     3     2    2.4101E+05 -1.7727E+03   2.4278E+05  0.000E+00  0.000E+00  0.000E+00  3.68706E+01  2.039E-01  2.000E+01  2.000E+04 -8.864E-02
   1   15   24     3     3    2.4278E+05 -1.2147E+03   2.4400E+05  0.000E+00  0.000E+00  0.000E+00  3.59825E+01  2.047E-01  2.000E+01  2.000E+04 -6.073E-02
   1   15   25     3     4    2.4400E+05 -1.1770E+03   2.4518E+05  0.000E+00  0.000E+00  0.000E+00  3.50942E+01  2.053E-01  2.000E+01  2.000E+04 -5.885E-02
   1   15   26     3     5    2.4518E+05 -1.8159E+03   2.4699E+05  0.000E+00  0.000E+00  0.000E+00  3.42060E+01  2.060E-01  2.000E+01  2.000E+04 -9.079E-02
   1   16   27     3     6    2.4699E+05 -1.5772E+03   2.4857E+05  0.000E+00  0.000E+00  0.000E+00  3.33180E+01  2.069E-01  2.000E+01  2.000E+04 -7.886E-02
   1   17   28     3     7    2.4857E+05 -1.1537E+03   2.4972E+05  0.000E+00  0.000E+00  0.000E+00  3.24298E+01  2.076E-01  2.000E+01  2.000E+04 -5.769E-02
   1   18   29     3     8    2.4972E+05 -9.6763E+02   2.5069E+05  0.000E+00  0.000E+00  0.000E+00  3.15414E+01  2.081E-01  2.000E+01  2.000E+04 -4.838E-02
   1   18   30     3     9    2.5069E+05 -2.3466E+03   2.5304E+05  0.000E+00  0.000E+00  0.000E+00  3.06534E+01  2.089E-01  2.000E+01  2.000E+04 -1.173E-01



1
              HEAD IN LAYER   1 AT END OF TIME STEP   1 IN STRESS PERIOD   10
  ---------------------------------------------------------------------------

          1      2      3      4      5      6      7      8      9     10
         11     12     13     14     15     16     17     18     19     20
         21     22     23     24     25     26     27     28     29     30
 .........................................................................
   1  ****** ****** ****** ****** ****** ****** ****** ****** ****** ******
      ****** ****** ****** ****** ****** ****** ****** ****** ****** ******
      ****** ****** ****** ****** ****** ****** ****** ****** ****** ******
   2  ****** ****** ****** ****** ****** ****** ****** ****** ****** ******
      ****** ****** ****** ****** ****** ****** ****** ****** ****** ******
      ****** ****** ****** ****** ****** ****** ****** ****** ****** ******
   3  ****** ****** ****** ****** ****** ****** ****** ****** ****** ******
      ****** ****** ****** ****** ****** ****** ****** ****** ****** ******
      ****** ****** ****** ****** ****** ****** ****** ****** ****** ******
   4  ****** ****** ****** ****** ****** ****** ****** ****** ****** ******
      ****** ****** ****** ****** ****** ****** ****** ****** ****** ******
      ****** ****** ****** ****** ****** ****** ****** ****** ****** ******
   5  ****** ****** ****** ****** ****** ****** ****** ****** ****** ******
      ****** ****** ****** ****** ****** ****** ****** ****** ****** ******
      ****** ****** ****** ****** ****** ****** ****** ****** ****** ******
   6  ****** ****** ****** ****** ****** ****** ****** ****** ****** ******
      ****** ****** ****** ****** ****** ****** ****** ****** ****** ******
      ****** ****** ****** ****** ****** ****** ****** ****** ****** ******
   7  ****** ****** ****** ****** ****** ****** ****** ****** ****** ******
      ****** ****** ****** ****** ****** ****** ****** ****** ****** ******
      ****** ****** ****** ****** ****** ****** ****** ****** ****** ******
   8  ****** ****** ****** ****** ****** ****** ****** ****** ****** ******
      ****** ****** ****** ****** ****** ****** ****** ****** ****** ******
      ****** ****** ****** ****** ****** ****** ****** ****** ****** ******
   9  ****** ****** ****** ****** ****** ****** ****** ****** ****** ******
      ****** ****** ****** ****** ****** ****** ****** ****** ****** ******
      ****** ****** ****** ****** ****** ****** ****** ****** ****** ******
  10  ****** ****** ****** ****** ****** ****** ****** ****** ****** ******
      ****** ****** ****** ****** ****** ****** ****** ****** ****** ******
      ****** ****** ****** ****** ****** ****** ****** ****** ****** ******
  11  ****** ****** ****** ****** ****** ****** ****** ****** ****** ******
      ****** ****** ****** ****** ****** ****** ****** ****** ****** ******
      ****** ****** ****** ****** ****** ****** ****** ****** ****** ******
  12  ****** ****** ****** ****** ****** ****** ****** ****** ****** ******
      ****** ****** ****** ****** ****** ****** ****** ****** ****** ******
      ****** ****** ****** ****** ****** ****** ****** ****** ****** ******
  13  ****** ****** ****** ****** ****** ****** ****** ****** ****** ******
      ****** ****** ****** ****** ****** ****** ****** ****** ****** ******
      ****** ****** ****** ****** ****** ****** ****** ****** ****** ******
  14  ****** ****** ****** ****** ****** ****** ****** ****** ****** ******
      ****** ****** ****** ****** ****** ****** ****** ****** ****** ******
      ****** ****** ****** ****** ****** ****** ****** ****** ****** ******
  15  ****** ****** ****** ****** ****** ****** ****** ****** ****** ******
      ****** ****** ****** ****** ****** ****** ****** ****** ****** ******
      ****** ****** ****** ****** ****** ****** ****** ****** ****** ******
  16  ****** ****** ****** ****** ****** ****** ****** ****** ****** ******
      ****** ****** ****** ****** ****** ****** ****** ****** ****** ******
      ****** ****** ****** ****** ****** ****** ****** ****** ****** ******
  17  ****** ****** ****** ****** ****** ****** ****** ****** ****** ******
      ****** ****** ****** ****** ****** ****** ****** ****** ****** ******
      ****** ****** ****** ****** ****** ****** ****** ****** ****** ******
  18  ****** ****** ****** ****** ****** ****** ****** ****** ****** ******
      ****** ****** ****** ****** ****** ****** ****** ****** ****** ******
      ****** ****** ****** ****** ****** ****** ****** ****** ****** ******
  19  ****** ****** ****** ****** ****** ****** ****** ****** ****** ******
      ****** ****** ****** ****** ****** ****** ****** ****** ****** ******
      ****** ****** ****** ****** ****** ****** ****** ****** ****** ******
  20  ****** ****** ****** ****** ****** ****** ****** ****** ****** ******
      ****** ****** ****** ****** ****** ****** ****** ****** ****** ******
      ****** ****** ****** ****** ****** ****** ****** ****** ****** ******
  21  ****** ****** ****** ****** ****** ****** ****** ****** ****** ******
      ****** ****** ****** ****** ****** ****** ****** ****** ****** ******
      ****** ****** ****** ****** ****** ****** ****** ****** ****** ******
  22  ****** ****** ****** ****** ****** ****** ****** ****** ****** ******
      ****** ****** ****** ****** ****** ****** ****** ****** ****** ******
      ****** ****** ****** ****** ****** ****** ****** ****** ****** ******
  23  ****** ****** ****** ****** ****** ****** ****** ****** ****** ******
      ****** ****** ****** ****** ****** ****** ****** ****** ****** ******
      ****** ****** ****** ****** ****** ****** ****** ****** ****** ******
  24  ****** ****** ****** ****** ****** ****** ****** ****** ****** ******
      ****** ****** ****** ****** ****** ****** ****** ****** ****** ******
      ****** ****** ****** ****** ****** ****** ****** ****** ****** ******
  25  ****** ****** ****** ****** ****** ****** ****** ****** ****** ******
      ****** ****** ****** ****** ****** ****** ****** ****** ****** ******
      ****** ****** ****** ****** ****** ****** ****** ****** ****** ******

 HEAD WILL BE SAVED ON UNIT   51 AT END OF TIME STEP    1, STRESS PERIOD   10
1
  VOLUMETRIC BUDGET FOR ENTIRE MODEL AT END OF TIME STEP    1, STRESS PERIOD  10
  ------------------------------------------------------------------------------

     CUMULATIVE VOLUMES      L**3       RATES FOR THIS TIME STEP      L**3/T
     ------------------                 ------------------------

           IN:                                      IN:
           ---                                      ---
             STORAGE =    26431373.5932               STORAGE =           0.0000
       CONSTANT HEAD =   174231743.9003         CONSTANT HEAD =      191904.8326
               WELLS =           0.0000                 WELLS =           0.0000
            RECHARGE =    23901600.0000              RECHARGE =       55200.0000
      STREAM LEAKAGE =     6258289.4253        STREAM LEAKAGE =        6947.4180

            TOTAL IN =   230823006.9188              TOTAL IN =      254052.2506

          OUT:                                     OUT:
          ----                                     ----
             STORAGE =     2234969.7332               STORAGE =       10758.1941
       CONSTANT HEAD =           0.0000         CONSTANT HEAD =           0.0000
               WELLS =   121712532.9057                 WELLS =      133310.5508
            RECHARGE =           0.0000              RECHARGE =           0.0000
      STREAM LEAKAGE =   106875505.1804        STREAM LEAKAGE =      109983.5039

           TOTAL OUT =   230823007.8194             TOTAL OUT =      254052.2488

            IN - OUT =          -0.9005              IN - OUT =       1.7871E-03

 PERCENT DISCREPANCY =          -0.00     PERCENT DISCREPANCY =           0.00






         TIME SUMMARY AT END OF TIME STEP    1 IN STRESS PERIOD   10
                    SECONDS     MINUTES      HOURS       DAYS        YEARS
                    -----------------------------------------------------------
   TIME STEP LENGTH 7.86240E+06 1.31040E+05  2184.0      91.000     0.24914    
 STRESS PERIOD TIME 7.86240E+06 1.31040E+05  2184.0      91.000     0.24914    
         TOTAL TIME 7.88832E+07 1.31472E+06  21912.      913.00      2.4997    
1
1
                            STRESS PERIOD NO.   11, LENGTH =   91.00000    
                            -----------------------------------------------

                              NUMBER OF TIME STEPS =     1

                               MULTIPLIER FOR DELT =     1.500

                            INITIAL TIME STEP SIZE =   91.00000    

 WELL NO.  LAYER   ROW   COL   STRESS RATE         
 --------------------------------------------------
      1      1     23     20     -0.3361E+05
      2      1     23      4     -0.3381E+05
      3      1      5     26     -0.3082E+05
      4      1     21     27     -0.3506E+05

      4 WELLS

                 RECHARGE =   0.00000    

 REUSING STREAM SEGMENT DATA FROM LAST STRESS PERIOD
 
 SOLVING FOR HEAD 


     7 CALLS TO PCG ROUTINE FOR TIME STEP   1 IN STRESS PERIOD   11
    26 TOTAL ITERATIONS

 OUTPUT CONTROL FOR STRESS PERIOD   11   TIME STEP    1
    SAVE BUDGET
    SAVE HEAD FOR ALL LAYERS
    PRINT HEAD FOR ALL LAYERS
 UBDSV2 SAVING "STREAMFLOW OUT  " ON UNIT  50 AT TIME STEP  1, STRESS PERIOD  11



 STREAM LISTING     PERIOD     11   STEP        1

 LAYER ROW COL. STREAM  RCH.  FLOW INTO     FLOW TO   FLOW OUT OF   OVRLND.     DIRECT     STREAM       STREAM     STREAM     STREAM   STREAMBED  STREAMBED
                SEG.NO.  NO.  STRM. RCH.    AQUIFER    STRM. RCH.    RUNOFF     PRECIP       ET          HEAD       DEPTH      WIDTH   CONDCTNC.   GRADIENT

   1   13    1     1     1    1.0000E+05 -2.3594E+03   1.0236E+05  0.000E+00  0.000E+00  0.000E+00  4.84070E+01  1.457E-01  2.000E+01  2.000E+04 -1.180E-01
   1   13    2     1     2    1.0236E+05 -4.3129E+03   1.0667E+05  0.000E+00  0.000E+00  0.000E+00  4.79326E+01  1.485E-01  2.000E+01  2.000E+04 -2.156E-01
   1   14    3     1     3    1.0667E+05 -2.9886E+03   1.0966E+05  0.000E+00  0.000E+00  0.000E+00  4.74584E+01  1.516E-01  2.000E+01  2.000E+04 -1.494E-01
   1   15    4     1     4    1.0966E+05 -2.5648E+03   1.1223E+05  0.000E+00  0.000E+00  0.000E+00  4.69835E+01  1.540E-01  2.000E+01  2.000E+04 -1.282E-01
   1   16    5     1     5    1.1223E+05 -2.3366E+03   1.1456E+05  0.000E+00  0.000E+00  0.000E+00  4.65083E+01  1.560E-01  2.000E+01  2.000E+04 -1.168E-01
   1   16    6     1     6    1.1456E+05 -2.2315E+03   1.1679E+05  0.000E+00  0.000E+00  0.000E+00  4.60329E+01  1.579E-01  2.000E+01  2.000E+04 -1.116E-01
   1   16    7     1     7    1.1679E+05 -2.4656E+03   1.1926E+05  0.000E+00  0.000E+00  0.000E+00  4.55575E+01  1.598E-01  2.000E+01  2.000E+04 -1.233E-01
   1   16    8     1     8    1.1926E+05 -2.6316E+03   1.2189E+05  0.000E+00  0.000E+00  0.000E+00  4.50823E+01  1.618E-01  2.000E+01  2.000E+04 -1.316E-01
   1   16    9     1     9    1.2189E+05 -2.7280E+03   1.2462E+05  0.000E+00  0.000E+00  0.000E+00  4.46072E+01  1.640E-01  2.000E+01  2.000E+04 -1.364E-01
   1   16   10     1    10    1.2462E+05 -2.7554E+03   1.2737E+05  0.000E+00  0.000E+00  0.000E+00  4.41321E+01  1.662E-01  2.000E+01  2.000E+04 -1.378E-01
   1   16   11     1    11    1.2737E+05 -2.7284E+03   1.3010E+05  0.000E+00  0.000E+00  0.000E+00  4.36570E+01  1.683E-01  2.000E+01  2.000E+04 -1.364E-01
   1   16   12     1    12    1.3010E+05 -3.4641E+03   1.3357E+05  0.000E+00  0.000E+00  0.000E+00  4.31821E+01  1.707E-01  2.000E+01  2.000E+04 -1.732E-01
   1   15   13     1    13    1.3357E+05 -3.2757E+03   1.3684E+05  0.000E+00  0.000E+00  0.000E+00  4.27074E+01  1.733E-01  2.000E+01  2.000E+04 -1.638E-01
   1   14   14     1    14    1.3684E+05 -3.3850E+03   1.4023E+05  0.000E+00  0.000E+00  0.000E+00  4.22327E+01  1.759E-01  2.000E+01  2.000E+04 -1.692E-01
   1   13   15     1    15    1.4023E+05 -3.7313E+03   1.4396E+05  0.000E+00  0.000E+00  0.000E+00  4.17581E+01  1.786E-01  2.000E+01  2.000E+04 -1.866E-01
   1   12   16     1    16    1.4396E+05 -4.9673E+03   1.4893E+05  0.000E+00  0.000E+00  0.000E+00  4.12841E+01  1.819E-01  2.000E+01  2.000E+04 -2.484E-01
   1   12   17     1    17    1.4893E+05 -3.1140E+03   1.5204E+05  0.000E+00  0.000E+00  0.000E+00  4.08098E+01  1.848E-01  2.000E+01  2.000E+04 -1.557E-01
   1   12   18     1    18    1.5204E+05 -2.9138E+03   1.5495E+05  0.000E+00  0.000E+00  0.000E+00  4.03348E+01  1.871E-01  2.000E+01  2.000E+04 -1.457E-01
   1   12   19     1    19    1.5495E+05 -3.7397E+03   1.5869E+05  0.000E+00  0.000E+00  0.000E+00  3.98599E+01  1.895E-01  2.000E+01  2.000E+04 -1.870E-01
   1   13   20     1    20    1.5869E+05 -2.1439E+03   1.6084E+05  0.000E+00  0.000E+00  0.000E+00  3.93848E+01  1.916E-01  2.000E+01  2.000E+04 -1.072E-01
   1   14   21     1    21    1.6084E+05 -1.1451E+03   1.6198E+05  0.000E+00  0.000E+00  0.000E+00  3.89087E+01  1.928E-01  2.000E+01  2.000E+04 -5.725E-02
   1   14   22     1    22    1.6198E+05  5.3540E+03   1.5663E+05  0.000E+00  0.000E+00  0.000E+00  3.84299E+01  1.913E-01  2.000E+01  2.000E+04  2.677E-01
   1    9   30     2     1    5.0000E+04 -1.2304E+03   5.1230E+04  0.000E+00  0.000E+00  0.000E+00  4.02417E+01  1.167E-01  2.000E+01  2.000E+04 -6.152E-02
   1    9   29     2     2    5.1230E+04 -1.3976E+03   5.2628E+04  0.000E+00  0.000E+00  0.000E+00  3.99935E+01  1.185E-01  2.000E+01  2.000E+04 -6.988E-02
   1    9   28     2     3    5.2628E+04 -1.4302E+03   5.4058E+04  0.000E+00  0.000E+00  0.000E+00  3.97455E+01  1.205E-01  2.000E+01  2.000E+04 -7.151E-02
   1    9   27     2     4    5.4058E+04 -2.6417E+03   5.6700E+04  0.000E+00  0.000E+00  0.000E+00  3.94982E+01  1.232E-01  2.000E+01  2.000E+04 -1.321E-01
   1   10   26     2     5    5.6700E+04 -1.8198E+03   5.8520E+04  0.000E+00  0.000E+00  0.000E+00  3.92511E+01  1.261E-01  2.000E+01  2.000E+04 -9.099E-02
   1   11   25     2     6    5.8520E+04 -1.5453E+03   6.0065E+04  0.000E+00  0.000E+00  0.000E+00  3.90033E+01  1.283E-01  2.000E+01  2.000E+04 -7.727E-02
   1   12   24     2     7    6.0065E+04 -1.1601E+03   6.1225E+04  0.000E+00  0.000E+00  0.000E+00  3.87551E+01  1.301E-01  2.000E+01  2.000E+04 -5.801E-02
   1   13   23     2     8    6.1225E+04 -6.5984E+02   6.1885E+04  0.000E+00  0.000E+00  0.000E+00  3.85063E+01  1.313E-01  2.000E+01  2.000E+04 -3.299E-02
   1   14   22     2     9    6.1885E+04  1.8655E+03   6.0019E+04  0.000E+00  0.000E+00  0.000E+00  3.82555E+01  1.305E-01  2.000E+01  2.000E+04  9.327E-02
   1   14   22     3     1    2.1665E+05 -8.2720E+03   2.2492E+05  0.000E+00  0.000E+00  0.000E+00  3.77486E+01  1.931E-01  2.000E+01  2.000E+04 -4.136E-01
   1   15   23     3     2    2.2492E+05 -1.2911E+03   2.2621E+05  0.000E+00  0.000E+00  0.000E+00  3.68622E+01  1.956E-01  2.000E+01  2.000E+04 -6.455E-02
   1   15   24     3     3    2.2621E+05 -8.5957E+02   2.2707E+05  0.000E+00  0.000E+00  0.000E+00  3.59739E+01  1.961E-01  2.000E+01  2.000E+04 -4.298E-02
   1   15   25     3     4    2.2707E+05 -8.1823E+02   2.2789E+05  0.000E+00  0.000E+00  0.000E+00  3.50854E+01  1.965E-01  2.000E+01  2.000E+04 -4.091E-02
   1   15   26     3     5    2.2789E+05 -1.3516E+03   2.2924E+05  0.000E+00  0.000E+00  0.000E+00  3.41971E+01  1.971E-01  2.000E+01  2.000E+04 -6.758E-02
   1   16   27     3     6    2.2924E+05 -1.0010E+03   2.3024E+05  0.000E+00  0.000E+00  0.000E+00  3.33088E+01  1.977E-01  2.000E+01  2.000E+04 -5.005E-02
   1   17   28     3     7    2.3024E+05 -5.6702E+02   2.3081E+05  0.000E+00  0.000E+00  0.000E+00  3.24203E+01  1.981E-01  2.000E+01  2.000E+04 -2.835E-02
   1   18   29     3     8    2.3081E+05 -4.2072E+02   2.3123E+05  0.000E+00  0.000E+00  0.000E+00  3.15317E+01  1.984E-01  2.000E+01  2.000E+04 -2.104E-02
   1   18   30     3     9    2.3123E+05 -1.9296E+03   2.3316E+05  0.000E+00  0.000E+00  0.000E+00  3.06434E+01  1.990E-01  2.000E+01  2.000E+04 -9.648E-02



1
              HEAD IN LAYER   1 AT END OF TIME STEP   1 IN STRESS PERIOD   11
  ---------------------------------------------------------------------------

          1      2      3      4      5      6      7      8      9     10
         11     12     13     14     15     16     17     18     19     20
         21     22     23     24     25     26     27     28     29     30
 .........................................................................
   1  ****** ****** ****** ****** ****** ****** ****** ****** ****** ******
      ****** ****** ****** ****** ****** ****** ****** ****** ****** ******
      ****** ****** ****** ****** ****** ****** ****** ****** ****** ******
   2  ****** ****** ****** ****** ****** ****** ****** ****** ****** ******
      ****** ****** ****** ****** ****** ****** ****** ****** ****** ******
      ****** ****** ****** ****** ****** ****** ****** ****** ****** ******
   3  ****** ****** ****** ****** ****** ****** ****** ****** ****** ******
      ****** ****** ****** ****** ****** ****** ****** ****** ****** ******
      ****** ****** ****** ****** ****** ****** ****** ****** ****** ******
   4  ****** ****** ****** ****** ****** ****** ****** ****** ****** ******
      ****** ****** ****** ****** ****** ****** ****** ****** ****** ******
      ****** ****** ****** ****** ****** ****** ****** ****** ****** ******
   5  ****** ****** ****** ****** ****** ****** ****** ****** ****** ******
      ****** ****** ****** ****** ****** ****** ****** ****** ****** ******
      ****** ****** ****** ****** ****** ****** ****** ****** ****** ******
   6  ****** ****** ****** ****** ****** ****** ****** ****** ****** ******
      ****** ****** ****** ****** ****** ****** ****** ****** ****** ******
      ****** ****** ****** ****** ****** ****** ****** ****** ****** ******
   7  ****** ****** ****** ****** ****** ****** ****** ****** ****** ******
      ****** ****** ****** ****** ****** ****** ****** ****** ****** ******
      ****** ****** ****** ****** ****** ****** ****** ****** ****** ******
   8  ****** ****** ****** ****** ****** ****** ****** ****** ****** ******
      ****** ****** ****** ****** ****** ****** ****** ****** ****** ******
      ****** ****** ****** ****** ****** ****** ****** ****** ****** ******
   9  ****** ****** ****** ****** ****** ****** ****** ****** ****** ******
      ****** ****** ****** ****** ****** ****** ****** ****** ****** ******
      ****** ****** ****** ****** ****** ****** ****** ****** ****** ******
  10  ****** ****** ****** ****** ****** ****** ****** ****** ****** ******
      ****** ****** ****** ****** ****** ****** ****** ****** ****** ******
      ****** ****** ****** ****** ****** ****** ****** ****** ****** ******
  11  ****** ****** ****** ****** ****** ****** ****** ****** ****** ******
      ****** ****** ****** ****** ****** ****** ****** ****** ****** ******
      ****** ****** ****** ****** ****** ****** ****** ****** ****** ******
  12  ****** ****** ****** ****** ****** ****** ****** ****** ****** ******
      ****** ****** ****** ****** ****** ****** ****** ****** ****** ******
      ****** ****** ****** ****** ****** ****** ****** ****** ****** ******
  13  ****** ****** ****** ****** ****** ****** ****** ****** ****** ******
      ****** ****** ****** ****** ****** ****** ****** ****** ****** ******
      ****** ****** ****** ****** ****** ****** ****** ****** ****** ******
  14  ****** ****** ****** ****** ****** ****** ****** ****** ****** ******
      ****** ****** ****** ****** ****** ****** ****** ****** ****** ******
      ****** ****** ****** ****** ****** ****** ****** ****** ****** ******
  15  ****** ****** ****** ****** ****** ****** ****** ****** ****** ******
      ****** ****** ****** ****** ****** ****** ****** ****** ****** ******
      ****** ****** ****** ****** ****** ****** ****** ****** ****** ******
  16  ****** ****** ****** ****** ****** ****** ****** ****** ****** ******
      ****** ****** ****** ****** ****** ****** ****** ****** ****** ******
      ****** ****** ****** ****** ****** ****** ****** ****** ****** ******
  17  ****** ****** ****** ****** ****** ****** ****** ****** ****** ******
      ****** ****** ****** ****** ****** ****** ****** ****** ****** ******
      ****** ****** ****** ****** ****** ****** ****** ****** ****** ******
  18  ****** ****** ****** ****** ****** ****** ****** ****** ****** ******
      ****** ****** ****** ****** ****** ****** ****** ****** ****** ******
      ****** ****** ****** ****** ****** ****** ****** ****** ****** ******
  19  ****** ****** ****** ****** ****** ****** ****** ****** ****** ******
      ****** ****** ****** ****** ****** ****** ****** ****** ****** ******
      ****** ****** ****** ****** ****** ****** ****** ****** ****** ******
  20  ****** ****** ****** ****** ****** ****** ****** ****** ****** ******
      ****** ****** ****** ****** ****** ****** ****** ****** ****** ******
      ****** ****** ****** ****** ****** ****** ****** ****** ****** ******
  21  ****** ****** ****** ****** ****** ****** ****** ****** ****** ******
      ****** ****** ****** ****** ****** ****** ****** ****** ****** ******
      ****** ****** ****** ****** ****** ****** ****** ****** ****** ******
  22  ****** ****** ****** ****** ****** ****** ****** ****** ****** ******
      ****** ****** ****** ****** ****** ****** ****** ****** ****** ******
      ****** ****** ****** ****** ****** ****** ****** ****** ****** ******
  23  ****** ****** ****** ****** ****** ****** ****** ****** ****** ******
      ****** ****** ****** ****** ****** ****** ****** ****** ****** ******
      ****** ****** ****** ****** ****** ****** ****** ****** ****** ******
  24  ****** ****** ****** ****** ****** ****** ****** ****** ****** ******
      ****** ****** ****** ****** ****** ****** ****** ****** ****** ******
      ****** ****** ****** ****** ****** ****** ****** ****** ****** ******
  25  ****** ****** ****** ****** ****** ****** ****** ****** ****** ******
      ****** ****** ****** ****** ****** ****** ****** ****** ****** ******
      ****** ****** ****** ****** ****** ****** ****** ****** ****** ******

 HEAD WILL BE SAVED ON UNIT   51 AT END OF TIME STEP    1, STRESS PERIOD   11
1
  VOLUMETRIC BUDGET FOR ENTIRE MODEL AT END OF TIME STEP    1, STRESS PERIOD  11
  ------------------------------------------------------------------------------

     CUMULATIVE VOLUMES      L**3       RATES FOR THIS TIME STEP      L**3/T
     ------------------                 ------------------------

           IN:                                      IN:
           ---                                      ---
             STORAGE =    27509744.3614               STORAGE =       11850.2282
       CONSTANT HEAD =   192852108.0894         CONSTANT HEAD =      204619.3867
               WELLS =           0.0000                 WELLS =           0.0000
            RECHARGE =    23901600.0000              RECHARGE =           0.0000
      STREAM LEAKAGE =     6915266.1873        STREAM LEAKAGE =        7219.5249

            TOTAL IN =   251178718.6381              TOTAL IN =      223689.1398

          OUT:                                     OUT:
          ----                                     ----
             STORAGE =     2234969.7332               STORAGE =           0.0000
       CONSTANT HEAD =           0.0000         CONSTANT HEAD =           0.0000
               WELLS =   133843793.0310                 WELLS =      133310.5508
            RECHARGE =           0.0000              RECHARGE =           0.0000
      STREAM LEAKAGE =   115099956.9749        STREAM LEAKAGE =       90378.5911

           TOTAL OUT =   251178719.7392             TOTAL OUT =      223689.1420

            IN - OUT =          -1.1011              IN - OUT =      -2.2044E-03

 PERCENT DISCREPANCY =          -0.00     PERCENT DISCREPANCY =          -0.00






         TIME SUMMARY AT END OF TIME STEP    1 IN STRESS PERIOD   11
                    SECONDS     MINUTES      HOURS       DAYS        YEARS
                    -----------------------------------------------------------
   TIME STEP LENGTH 7.86240E+06 1.31040E+05  2184.0      91.000     0.24914    
 STRESS PERIOD TIME 7.86240E+06 1.31040E+05  2184.0      91.000     0.24914    
         TOTAL TIME 8.67456E+07 1.44576E+06  24096.      1004.0      2.7488    
1
1
                            STRESS PERIOD NO.   12, LENGTH =   91.00000    
                            -----------------------------------------------

                              NUMBER OF TIME STEPS =     1

                               MULTIPLIER FOR DELT =     1.500

                            INITIAL TIME STEP SIZE =   91.00000    

 WELL NO.  LAYER   ROW   COL   STRESS RATE         
 --------------------------------------------------
      1      1     23     20     -0.3361E+05
      2      1     23      4     -0.3381E+05
      3      1      5     26     -0.3082E+05
      4      1     21     27     -0.3506E+05

      4 WELLS

                 RECHARGE =  1.000000E-03

 REUSING STREAM SEGMENT DATA FROM LAST STRESS PERIOD
 
 SOLVING FOR HEAD 


     6 CALLS TO PCG ROUTINE FOR TIME STEP   1 IN STRESS PERIOD   12
    23 TOTAL ITERATIONS

 OUTPUT CONTROL FOR STRESS PERIOD   12   TIME STEP    1
    SAVE BUDGET
    SAVE HEAD FOR ALL LAYERS
    PRINT HEAD FOR ALL LAYERS
 UBDSV2 SAVING "STREAMFLOW OUT  " ON UNIT  50 AT TIME STEP  1, STRESS PERIOD  12



 STREAM LISTING     PERIOD     12   STEP        1

 LAYER ROW COL. STREAM  RCH.  FLOW INTO     FLOW TO   FLOW OUT OF   OVRLND.     DIRECT     STREAM       STREAM     STREAM     STREAM   STREAMBED  STREAMBED
                SEG.NO.  NO.  STRM. RCH.    AQUIFER    STRM. RCH.    RUNOFF     PRECIP       ET          HEAD       DEPTH      WIDTH   CONDCTNC.   GRADIENT

   1   13    1     1     1    1.0000E+05 -2.5329E+03   1.0253E+05  0.000E+00  0.000E+00  0.000E+00  4.84071E+01  1.457E-01  2.000E+01  2.000E+04 -1.266E-01
   1   13    2     1     2    1.0253E+05 -4.5309E+03   1.0706E+05  0.000E+00  0.000E+00  0.000E+00  4.79329E+01  1.488E-01  2.000E+01  2.000E+04 -2.265E-01
   1   14    3     1     3    1.0706E+05 -3.2276E+03   1.1029E+05  0.000E+00  0.000E+00  0.000E+00  4.74589E+01  1.521E-01  2.000E+01  2.000E+04 -1.614E-01
   1   15    4     1     4    1.1029E+05 -2.8059E+03   1.1310E+05  0.000E+00  0.000E+00  0.000E+00  4.69841E+01  1.546E-01  2.000E+01  2.000E+04 -1.403E-01
   1   16    5     1     5    1.1310E+05 -2.5591E+03   1.1566E+05  0.000E+00  0.000E+00  0.000E+00  4.65091E+01  1.568E-01  2.000E+01  2.000E+04 -1.280E-01
   1   16    6     1     6    1.1566E+05 -2.4087E+03   1.1807E+05  0.000E+00  0.000E+00  0.000E+00  4.60338E+01  1.588E-01  2.000E+01  2.000E+04 -1.204E-01
   1   16    7     1     7    1.1807E+05 -2.6447E+03   1.2071E+05  0.000E+00  0.000E+00  0.000E+00  4.55586E+01  1.609E-01  2.000E+01  2.000E+04 -1.322E-01
   1   16    8     1     8    1.2071E+05 -2.8117E+03   1.2352E+05  0.000E+00  0.000E+00  0.000E+00  4.50835E+01  1.631E-01  2.000E+01  2.000E+04 -1.406E-01
   1   16    9     1     9    1.2352E+05 -2.9080E+03   1.2643E+05  0.000E+00  0.000E+00  0.000E+00  4.46085E+01  1.654E-01  2.000E+01  2.000E+04 -1.454E-01
   1   16   10     1    10    1.2643E+05 -2.9342E+03   1.2936E+05  0.000E+00  0.000E+00  0.000E+00  4.41336E+01  1.677E-01  2.000E+01  2.000E+04 -1.467E-01
   1   16   11     1    11    1.2936E+05 -2.9053E+03   1.3227E+05  0.000E+00  0.000E+00  0.000E+00  4.36586E+01  1.700E-01  2.000E+01  2.000E+04 -1.453E-01
   1   16   12     1    12    1.3227E+05 -3.6870E+03   1.3596E+05  0.000E+00  0.000E+00  0.000E+00  4.31839E+01  1.725E-01  2.000E+01  2.000E+04 -1.843E-01
   1   15   13     1    13    1.3596E+05 -3.5191E+03   1.3948E+05  0.000E+00  0.000E+00  0.000E+00  4.27094E+01  1.753E-01  2.000E+01  2.000E+04 -1.760E-01
   1   14   14     1    14    1.3948E+05 -3.6310E+03   1.4311E+05  0.000E+00  0.000E+00  0.000E+00  4.22348E+01  1.780E-01  2.000E+01  2.000E+04 -1.815E-01
   1   13   15     1    15    1.4311E+05 -3.9718E+03   1.4708E+05  0.000E+00  0.000E+00  0.000E+00  4.17604E+01  1.808E-01  2.000E+01  2.000E+04 -1.986E-01
   1   12   16     1    16    1.4708E+05 -5.1869E+03   1.5226E+05  0.000E+00  0.000E+00  0.000E+00  4.12865E+01  1.843E-01  2.000E+01  2.000E+04 -2.593E-01
   1   12   17     1    17    1.5226E+05 -3.2877E+03   1.5555E+05  0.000E+00  0.000E+00  0.000E+00  4.08124E+01  1.874E-01  2.000E+01  2.000E+04 -1.644E-01
   1   12   18     1    18    1.5555E+05 -3.0871E+03   1.5864E+05  0.000E+00  0.000E+00  0.000E+00  4.03374E+01  1.897E-01  2.000E+01  2.000E+04 -1.544E-01
   1   12   19     1    19    1.5864E+05 -3.9510E+03   1.6259E+05  0.000E+00  0.000E+00  0.000E+00  3.98627E+01  1.922E-01  2.000E+01  2.000E+04 -1.976E-01
   1   13   20     1    20    1.6259E+05 -2.3628E+03   1.6495E+05  0.000E+00  0.000E+00  0.000E+00  3.93877E+01  1.945E-01  2.000E+01  2.000E+04 -1.181E-01
   1   14   21     1    21    1.6495E+05 -1.3420E+03   1.6630E+05  0.000E+00  0.000E+00  0.000E+00  3.89117E+01  1.958E-01  2.000E+01  2.000E+04 -6.710E-02
   1   14   22     1    22    1.6630E+05  5.3091E+03   1.6099E+05  0.000E+00  0.000E+00  0.000E+00  3.84330E+01  1.944E-01  2.000E+01  2.000E+04  2.655E-01
   1    9   30     2     1    5.0000E+04 -1.4098E+03   5.1410E+04  0.000E+00  0.000E+00  0.000E+00  4.02418E+01  1.168E-01  2.000E+01  2.000E+04 -7.049E-02
   1    9   29     2     2    5.1410E+04 -1.5753E+03   5.2985E+04  0.000E+00  0.000E+00  0.000E+00  3.99939E+01  1.189E-01  2.000E+01  2.000E+04 -7.876E-02
   1    9   28     2     3    5.2985E+04 -1.6053E+03   5.4590E+04  0.000E+00  0.000E+00  0.000E+00  3.97461E+01  1.211E-01  2.000E+01  2.000E+04 -8.026E-02
   1    9   27     2     4    5.4590E+04 -2.8623E+03   5.7453E+04  0.000E+00  0.000E+00  0.000E+00  3.94990E+01  1.240E-01  2.000E+01  2.000E+04 -1.431E-01
   1   10   26     2     5    5.7453E+04 -2.0573E+03   5.9510E+04  0.000E+00  0.000E+00  0.000E+00  3.92523E+01  1.273E-01  2.000E+01  2.000E+04 -1.029E-01
   1   11   25     2     6    5.9510E+04 -1.7763E+03   6.1286E+04  0.000E+00  0.000E+00  0.000E+00  3.90048E+01  1.298E-01  2.000E+01  2.000E+04 -8.882E-02
   1   12   24     2     7    6.1286E+04 -1.3698E+03   6.2656E+04  0.000E+00  0.000E+00  0.000E+00  3.87568E+01  1.318E-01  2.000E+01  2.000E+04 -6.849E-02
   1   13   23     2     8    6.2656E+04 -8.3017E+02   6.3486E+04  0.000E+00  0.000E+00  0.000E+00  3.85082E+01  1.332E-01  2.000E+01  2.000E+04 -4.151E-02
   1   14   22     2     9    6.3486E+04  1.8002E+03   6.1686E+04  0.000E+00  0.000E+00  0.000E+00  3.82576E+01  1.326E-01  2.000E+01  2.000E+04  9.001E-02
   1   14   22     3     1    2.2267E+05 -8.3160E+03   2.3099E+05  0.000E+00  0.000E+00  0.000E+00  3.77518E+01  1.962E-01  2.000E+01  2.000E+04 -4.158E-01
   1   15   23     3     2    2.3099E+05 -1.4757E+03   2.3246E+05  0.000E+00  0.000E+00  0.000E+00  3.68654E+01  1.987E-01  2.000E+01  2.000E+04 -7.379E-02
   1   15   24     3     3    2.3246E+05 -1.0040E+03   2.3347E+05  0.000E+00  0.000E+00  0.000E+00  3.59772E+01  1.994E-01  2.000E+01  2.000E+04 -5.020E-02
   1   15   25     3     4    2.3347E+05 -9.6740E+02   2.3444E+05  0.000E+00  0.000E+00  0.000E+00  3.50888E+01  1.999E-01  2.000E+01  2.000E+04 -4.837E-02
   1   15   26     3     5    2.3444E+05 -1.5466E+03   2.3598E+05  0.000E+00  0.000E+00  0.000E+00  3.42005E+01  2.005E-01  2.000E+01  2.000E+04 -7.733E-02
   1   16   27     3     6    2.3598E+05 -1.2355E+03   2.3722E+05  0.000E+00  0.000E+00  0.000E+00  3.33123E+01  2.012E-01  2.000E+01  2.000E+04 -6.177E-02
   1   17   28     3     7    2.3722E+05 -8.0395E+02   2.3802E+05  0.000E+00  0.000E+00  0.000E+00  3.24240E+01  2.018E-01  2.000E+01  2.000E+04 -4.020E-02
   1   18   29     3     8    2.3802E+05 -6.3733E+02   2.3866E+05  0.000E+00  0.000E+00  0.000E+00  3.15355E+01  2.021E-01  2.000E+01  2.000E+04 -3.187E-02
   1   18   30     3     9    2.3866E+05 -2.1003E+03   2.4076E+05  0.000E+00  0.000E+00  0.000E+00  3.06473E+01  2.028E-01  2.000E+01  2.000E+04 -1.050E-01



1
              HEAD IN LAYER   1 AT END OF TIME STEP   1 IN STRESS PERIOD   12
  ---------------------------------------------------------------------------

          1      2      3      4      5      6      7      8      9     10
         11     12     13     14     15     16     17     18     19     20
         21     22     23     24     25     26     27     28     29     30
 .........................................................................
   1  ****** ****** ****** ****** ****** ****** ****** ****** ****** ******
      ****** ****** ****** ****** ****** ****** ****** ****** ****** ******
      ****** ****** ****** ****** ****** ****** ****** ****** ****** ******
   2  ****** ****** ****** ****** ****** ****** ****** ****** ****** ******
      ****** ****** ****** ****** ****** ****** ****** ****** ****** ******
      ****** ****** ****** ****** ****** ****** ****** ****** ****** ******
   3  ****** ****** ****** ****** ****** ****** ****** ****** ****** ******
      ****** ****** ****** ****** ****** ****** ****** ****** ****** ******
      ****** ****** ****** ****** ****** ****** ****** ****** ****** ******
   4  ****** ****** ****** ****** ****** ****** ****** ****** ****** ******
      ****** ****** ****** ****** ****** ****** ****** ****** ****** ******
      ****** ****** ****** ****** ****** ****** ****** ****** ****** ******
   5  ****** ****** ****** ****** ****** ****** ****** ****** ****** ******
      ****** ****** ****** ****** ****** ****** ****** ****** ****** ******
      ****** ****** ****** ****** ****** ****** ****** ****** ****** ******
   6  ****** ****** ****** ****** ****** ****** ****** ****** ****** ******
      ****** ****** ****** ****** ****** ****** ****** ****** ****** ******
      ****** ****** ****** ****** ****** ****** ****** ****** ****** ******
   7  ****** ****** ****** ****** ****** ****** ****** ****** ****** ******
      ****** ****** ****** ****** ****** ****** ****** ****** ****** ******
      ****** ****** ****** ****** ****** ****** ****** ****** ****** ******
   8  ****** ****** ****** ****** ****** ****** ****** ****** ****** ******
      ****** ****** ****** ****** ****** ****** ****** ****** ****** ******
      ****** ****** ****** ****** ****** ****** ****** ****** ****** ******
   9  ****** ****** ****** ****** ****** ****** ****** ****** ****** ******
      ****** ****** ****** ****** ****** ****** ****** ****** ****** ******
      ****** ****** ****** ****** ****** ****** ****** ****** ****** ******
  10  ****** ****** ****** ****** ****** ****** ****** ****** ****** ******
      ****** ****** ****** ****** ****** ****** ****** ****** ****** ******
      ****** ****** ****** ****** ****** ****** ****** ****** ****** ******
  11  ****** ****** ****** ****** ****** ****** ****** ****** ****** ******
      ****** ****** ****** ****** ****** ****** ****** ****** ****** ******
      ****** ****** ****** ****** ****** ****** ****** ****** ****** ******
  12  ****** ****** ****** ****** ****** ****** ****** ****** ****** ******
      ****** ****** ****** ****** ****** ****** ****** ****** ****** ******
      ****** ****** ****** ****** ****** ****** ****** ****** ****** ******
  13  ****** ****** ****** ****** ****** ****** ****** ****** ****** ******
      ****** ****** ****** ****** ****** ****** ****** ****** ****** ******
      ****** ****** ****** ****** ****** ****** ****** ****** ****** ******
  14  ****** ****** ****** ****** ****** ****** ****** ****** ****** ******
      ****** ****** ****** ****** ****** ****** ****** ****** ****** ******
      ****** ****** ****** ****** ****** ****** ****** ****** ****** ******
  15  ****** ****** ****** ****** ****** ****** ****** ****** ****** ******
      ****** ****** ****** ****** ****** ****** ****** ****** ****** ******
      ****** ****** ****** ****** ****** ****** ****** ****** ****** ******
  16  ****** ****** ****** ****** ****** ****** ****** ****** ****** ******
      ****** ****** ****** ****** ****** ****** ****** ****** ****** ******
      ****** ****** ****** ****** ****** ****** ****** ****** ****** ******
  17  ****** ****** ****** ****** ****** ****** ****** ****** ****** ******
      ****** ****** ****** ****** ****** ****** ****** ****** ****** ******
      ****** ****** ****** ****** ****** ****** ****** ****** ****** ******
  18  ****** ****** ****** ****** ****** ****** ****** ****** ****** ******
      ****** ****** ****** ****** ****** ****** ****** ****** ****** ******
      ****** ****** ****** ****** ****** ****** ****** ****** ****** ******
  19  ****** ****** ****** ****** ****** ****** ****** ****** ****** ******
      ****** ****** ****** ****** ****** ****** ****** ****** ****** ******
      ****** ****** ****** ****** ****** ****** ****** ****** ****** ******
  20  ****** ****** ****** ****** ****** ****** ****** ****** ****** ******
      ****** ****** ****** ****** ****** ****** ****** ****** ****** ******
      ****** ****** ****** ****** ****** ****** ****** ****** ****** ******
  21  ****** ****** ****** ****** ****** ****** ****** ****** ****** ******
      ****** ****** ****** ****** ****** ****** ****** ****** ****** ******
      ****** ****** ****** ****** ****** ****** ****** ****** ****** ******
  22  ****** ****** ****** ****** ****** ****** ****** ****** ****** ******
      ****** ****** ****** ****** ****** ****** ****** ****** ****** ******
      ****** ****** ****** ****** ****** ****** ****** ****** ****** ******
  23  ****** ****** ****** ****** ****** ****** ****** ****** ****** ******
      ****** ****** ****** ****** ****** ****** ****** ****** ****** ******
      ****** ****** ****** ****** ****** ****** ****** ****** ****** ******
  24  ****** ****** ****** ****** ****** ****** ****** ****** ****** ******
      ****** ****** ****** ****** ****** ****** ****** ****** ****** ******
      ****** ****** ****** ****** ****** ****** ****** ****** ****** ******
  25  ****** ****** ****** ****** ****** ****** ****** ****** ****** ******
      ****** ****** ****** ****** ****** ****** ****** ****** ****** ******
      ****** ****** ****** ****** ****** ****** ****** ****** ****** ******

 HEAD WILL BE SAVED ON UNIT   51 AT END OF TIME STEP    1, STRESS PERIOD   12
1
  VOLUMETRIC BUDGET FOR ENTIRE MODEL AT END OF TIME STEP    1, STRESS PERIOD  12
  ------------------------------------------------------------------------------

     CUMULATIVE VOLUMES      L**3       RATES FOR THIS TIME STEP      L**3/T
     ------------------                 ------------------------

           IN:                                      IN:
           ---                                      ---
             STORAGE =    27509744.3614               STORAGE =           0.0000
       CONSTANT HEAD =   211070615.2876         CONSTANT HEAD =      200203.3758
               WELLS =           0.0000                 WELLS =           0.0000
            RECHARGE =    26413200.0000              RECHARGE =       27600.0000
      STREAM LEAKAGE =     7562212.6077        STREAM LEAKAGE =        7109.3013

            TOTAL IN =   272555772.2567              TOTAL IN =      234912.6771

          OUT:                                     OUT:
          ----                                     ----
             STORAGE =     2574730.2459               STORAGE =        3733.6320
       CONSTANT HEAD =           0.0000         CONSTANT HEAD =           0.0000
               WELLS =   145975053.1564                 WELLS =      133310.5508
            RECHARGE =           0.0000              RECHARGE =           0.0000
      STREAM LEAKAGE =   124005989.8761        STREAM LEAKAGE =       97868.4934

           TOTAL OUT =   272555773.2784             TOTAL OUT =      234912.6763

            IN - OUT =          -1.0217              IN - OUT =       8.7256E-04

 PERCENT DISCREPANCY =          -0.00     PERCENT DISCREPANCY =           0.00






         TIME SUMMARY AT END OF TIME STEP    1 IN STRESS PERIOD   12
                    SECONDS     MINUTES      HOURS       DAYS        YEARS
                    -----------------------------------------------------------
   TIME STEP LENGTH 7.86240E+06 1.31040E+05  2184.0      91.000     0.24914    
 STRESS PERIOD TIME 7.86240E+06 1.31040E+05  2184.0      91.000     0.24914    
         TOTAL TIME 9.46080E+07 1.57680E+06  26280.      1095.0      2.9979    
1

 Run end date and time (yyyy/mm/dd hh:mm:ss): 2018/10/09 16:31:32
 Elapsed run time:  0.051 Seconds

