                                  MODFLOW-2005     
      U.S. GEOLOGICAL SURVEY MODULAR FINITE-DIFFERENCE GROUND-WATER FLOW MODEL
                            VERSION 1.11.00 8/8/2013

 LIST FILE: supply2.lst
                         UNIT   10

 OPENING ..\data\supply.dis
 FILE TYPE:DIS   UNIT   11   STATUS:OLD    
 FORMAT:FORMATTED              ACCESS:SEQUENTIAL          

 OPENING ..\data\supply.ba6
 FILE TYPE:BAS6   UNIT   12   STATUS:OLD    
 FORMAT:FORMATTED              ACCESS:SEQUENTIAL          

 OPENING ..\data\supply.bc6
 FILE TYPE:BCF6   UNIT   13   STATUS:OLD    
 FORMAT:FORMATTED              ACCESS:SEQUENTIAL          

 OPENING ..\data\supply.rch
 FILE TYPE:RCH   UNIT   15   STATUS:OLD    
 FORMAT:FORMATTED              ACCESS:SEQUENTIAL          

 OPENING ..\data\supply2.sfr
 FILE TYPE:SFR   UNIT   16   STATUS:OLD    
 FORMAT:FORMATTED              ACCESS:SEQUENTIAL          

 OPENING ..\data\supply.oc
 FILE TYPE:OC   UNIT   17   STATUS:OLD    
 FORMAT:FORMATTED              ACCESS:SEQUENTIAL          

 OPENING ..\data\supply.pcg
 FILE TYPE:PCG   UNIT   18   STATUS:OLD    
 FORMAT:FORMATTED              ACCESS:SEQUENTIAL          

 OPENING supply2.wel
 FILE TYPE:WEL   UNIT   19   STATUS:OLD    
 FORMAT:FORMATTED              ACCESS:SEQUENTIAL          

 OPENING supply2sf.bin
 FILE TYPE:DATA(BINARY)   UNIT   50   STATUS:UNKNOWN
 FORMAT:BINARY                 ACCESS:SEQUENTIAL          

 OPENING supply2hd.bin
 FILE TYPE:DATA(BINARY)   UNIT   51   STATUS:UNKNOWN
 FORMAT:BINARY                 ACCESS:SEQUENTIAL          

 BAS -- BASIC PACKAGE, VERSION 7, 5/2/2005 INPUT READ FROM UNIT   12
 
 MODFLOW was compiled using uniform precision
 Precision of REAL and DOUBLE PRECISION variables:          15

 DISCRETIZATION INPUT DATA READ FROM UNIT   11
    1 LAYERS        25 ROWS        30 COLUMNS
   12 STRESS PERIOD(S) IN SIMULATION
 MODEL TIME UNIT IS DAYS
 MODEL LENGTH UNIT IS UNDEFINED
  Confining bed flag for each layer:
   0

                     DELR =   200.000    

                     DELC =   200.000    

 TOP ELEVATION OF LAYER 1 =  100.0000    

   MODEL LAYER BOTTOM EL. =   0.00000     FOR LAYER   1


 STRESS PERIOD     LENGTH       TIME STEPS     MULTIPLIER FOR DELT    SS FLAG
 ----------------------------------------------------------------------------
        1         92.00000          1                    1.500         TR
        2         91.00000          1                    1.500         TR
        3         91.00000          1                    1.500         TR
        4         91.00000          1                    1.500         TR
        5         92.00000          1                    1.500         TR
        6         91.00000          1                    1.500         TR
        7         91.00000          1                    1.500         TR
        8         91.00000          1                    1.500         TR
        9         92.00000          1                    1.500         TR
       10         91.00000          1                    1.500         TR
       11         91.00000          1                    1.500         TR
       12         91.00000          1                    1.500         TR

 TRANSIENT SIMULATION



 
 #MODOFC transient water supply sample problem                                   
 #                                                                               
 THE FREE FORMAT OPTION HAS BEEN SELECTED



                     BOUNDARY ARRAY FOR LAYER   1
 READING ON UNIT   12 WITH FORMAT: (20I4)              

 AQUIFER HEAD WILL BE SET TO   0.0000     AT ALL NO-FLOW NODES (IBOUND=0).



                       INITIAL HEAD FOR LAYER   1
 READING ON UNIT   12 WITH FORMAT: (10F13.0)           

 OUTPUT CONTROL IS SPECIFIED ONLY AT TIME STEPS FOR WHICH OUTPUT IS DESIRED
 COMPACT CELL-BY-CELL BUDGET FILES WILL BE WRITTEN
 HEAD PRINT FORMAT CODE IS  18    DRAWDOWN PRINT FORMAT CODE IS   0
 HEADS WILL BE SAVED ON UNIT   51    DRAWDOWNS WILL BE SAVED ON UNIT    0

 BCF -- BLOCK-CENTERED FLOW PACKAGE, VERSION 7, 5/2/2005
         INPUT READ FROM UNIT 13
 TRANSIENT SIMULATION
 HEAD AT CELLS THAT CONVERT TO DRY=   0.0000    
 WETTING CAPABILITY IS NOT ACTIVE
      LAYER  LAYER-TYPE CODE     INTERBLOCK T
      --------------------------------------------
         1            0          0 -- HARMONIC    

 COLUMN TO ROW ANISOTROPY =  1.000000    

     PRIMARY STORAGE COEF =  5.000000E-02 FOR LAYER   1

     TRANSMIS. ALONG ROWS =   5000.00     FOR LAYER   1

 WEL -- WELL PACKAGE, VERSION 7, 5/2/2005 INPUT READ FROM UNIT   19
 # Well package input file written by MMProc
 No named parameters
 MAXIMUM OF      5 ACTIVE WELLS AT ONE TIME


     0 Well parameters

 RCH -- RECHARGE PACKAGE, VERSION 7, 5/2/2005 INPUT READ FROM UNIT   15
 No named parameters
 OPTION 1 -- RECHARGE TO TOP LAYER


     0 Recharge parameters

 SFR7 -- STREAMFLOW ROUTING PACKAGE, VERSION 1.0.7, 2013-01-15
         INPUT READ FROM UNIT  16
 #  Supply2 test problem for GWM-VI
 #  The eighth entry in the first data line is ISTCB2 -
 #    Setting this to a negative number indicates that
 #    streamflows out of the reach will be saved to a
 #    binary file.  The absolute value of ISTCB2 is the
 #    unit to which unformatted flows will be written.
 #
 No named parameters
 Segment information will not be 
 read by reach
 No named parameters
 No specifed inflow files


 NUMBER OF STREAM REACHES IS   40

 NUMBER OF STREAM SEGMENTS IS    3

 NUMBER OF STREAM PARAMETERS IS    0

 NUMBER OF STREAM SEGMENTS DEFINED USING PARAMETERS IS              0

 MAXIMUM ERROR FOR STREAM LEAKAGE RATES IS  1.00E-04

 CONSTANT FOR MANNINGS EQUATION IS  1.2839E+05





   STREAM NETWORK DESCRIPTION: 

   LAYER    ROW    COL   SEGMENT   REACH     LENGTH
                          NUMBER   NUMBER    IN CELL        
   --------------------------------------------------
      1     13      1       1        1    2.0000E+02
      1     13      2       1        2    2.0000E+02
      1     14      3       1        3    2.0000E+02
      1     15      4       1        4    2.0000E+02
      1     16      5       1        5    2.0000E+02
      1     16      6       1        6    2.0000E+02
      1     16      7       1        7    2.0000E+02
      1     16      8       1        8    2.0000E+02
      1     16      9       1        9    2.0000E+02
      1     16     10       1       10    2.0000E+02
      1     16     11       1       11    2.0000E+02
      1     16     12       1       12    2.0000E+02
      1     15     13       1       13    2.0000E+02
      1     14     14       1       14    2.0000E+02
      1     13     15       1       15    2.0000E+02
      1     12     16       1       16    2.0000E+02
      1     12     17       1       17    2.0000E+02
      1     12     18       1       18    2.0000E+02
      1     12     19       1       19    2.0000E+02
      1     13     20       1       20    2.0000E+02
      1     14     21       1       21    2.0000E+02
      1     14     22       1       22    2.0000E+02
      1      9     30       2        1    2.0000E+02
      1      9     29       2        2    2.0000E+02
      1      9     28       2        3    2.0000E+02
      1      9     27       2        4    2.0000E+02
      1     10     26       2        5    2.0000E+02
      1     11     25       2        6    2.0000E+02
      1     12     24       2        7    2.0000E+02
      1     13     23       2        8    2.0000E+02
      1     14     22       2        9    2.0000E+02
      1     14     22       3        1    2.0000E+02
      1     15     23       3        2    2.0000E+02
      1     15     24       3        3    2.0000E+02
      1     15     25       3        4    2.0000E+02
      1     15     26       3        5    2.0000E+02
      1     16     27       3        6    2.0000E+02
      1     17     28       3        7    2.0000E+02
      1     18     29       3        8    2.0000E+02
      1     18     30       3        9    2.0000E+02




 PCG -- CONJUGATE-GRADIENT SOLUTION PACKAGE, VERSION 7, 5/2/2005
 MAXIMUM OF    500 CALLS OF SOLUTION ROUTINE
 MAXIMUM OF      5 INTERNAL ITERATIONS PER CALL TO SOLUTION ROUTINE
 MATRIX PRECONDITIONING TYPE :    1



                                    SOLUTION BY THE CONJUGATE-GRADIENT METHOD
                                   -------------------------------------------
                    MAXIMUM NUMBER OF CALLS TO PCG ROUTINE =      500
                        MAXIMUM ITERATIONS PER CALL TO PCG =        5
                               MATRIX PRECONDITIONING TYPE =        1
        RELAXATION FACTOR (ONLY USED WITH PRECOND. TYPE 1) =    0.10000E+01
 PARAMETER OF POLYNOMIAL PRECOND. = 2 (2) OR IS CALCULATED :        0
                         HEAD CHANGE CRITERION FOR CLOSURE =    0.10000E-05
                     RESIDUAL CHANGE CRITERION FOR CLOSURE =    0.10000E+01
            PCG HEAD AND RESIDUAL CHANGE PRINTOUT INTERVAL =        1
     PRINTING FROM SOLVER IS LIMITED(1) OR SUPPRESSED (>1) =        1
                            STEADY-STATE DAMPING PARAMETER =    0.10000E+01
                               TRANSIENT DAMPING PARAMETER =    0.10000E+01
1
                            STRESS PERIOD NO.    1, LENGTH =   92.00000    
                            -----------------------------------------------

                              NUMBER OF TIME STEPS =     1

                               MULTIPLIER FOR DELT =     1.500

                            INITIAL TIME STEP SIZE =   92.00000    

 WELL NO.  LAYER   ROW   COL   STRESS RATE         
 --------------------------------------------------
      1      1     19     16     -0.2814E+05
      2      1      7     26     -0.5000E+05
      3      1     22     20     -0.5250E+05

      3 WELLS

                 RECHARGE =  5.000000E-04



 CLASSIFICATION & COUNT OF STREAM SEGMENTS BASED ON SOURCE OF INFLOW:

                HEADWATER     DIVERSION     RECEIVES TRIBUTARY FLOW
                ---------     ---------     -----------------------
                     2              0               1



                    INPUT DATA FOR EACH STREAM SEGMENT
 ---------------------------------------------------------------------------------------------

 SEGMENT    SEG.     INFLOW   OVERLAND   STREAM    STREAM   ICALC  OUTFLOW  DIVERSION PRIORITY
    NO.    LENGTH     RATE     RUNOFF      ET       PPT.    METH.  TO SEG.  FROM SEG.    NO.

      1  4.400E+03 1.000E+05 0.000E+00 0.000E+00 0.000E+00    1        3        0        0
      2  1.800E+03 5.000E+04 0.000E+00 0.000E+00 0.000E+00    1        3        0        0
      3  1.800E+03 0.000E+00 0.000E+00 0.000E+00 0.000E+00    1        0        0        0


         STREAMBED PROPERTIES AND STREAM DIMENSIONS

 SEGMENT     BED HYD. COND.      BED THICKNESS     ELEV.-TOP OF BED     WIDTH OF STREAM     DEPTH OF STREAM    STREAM ROUGHNESS
    No.     UPPER     LOWER     UPPER     LOWER     UPPER     LOWER     UPPER     LOWER     UPPER     LOWER   CHANNEL      BANK

     1  5.000E+00 5.000E+00 1.000E+00 1.000E+00 4.850E+01 3.800E+01 2.000E+01 2.000E+01                     5.000E-02
     2  5.000E+00 5.000E+00 1.000E+00 1.000E+00 4.025E+01 3.800E+01 2.000E+01 2.000E+01                     5.000E-02
     3  5.000E+00 5.000E+00 1.000E+00 1.000E+00 3.800E+01 3.000E+01 2.000E+01 2.000E+01                     5.000E-02



 
 SOLVING FOR HEAD 


     8 CALLS TO PCG ROUTINE FOR TIME STEP   1 IN STRESS PERIOD    1
    32 TOTAL ITERATIONS

 OUTPUT CONTROL FOR STRESS PERIOD    1   TIME STEP    1
    SAVE BUDGET
    SAVE HEAD FOR ALL LAYERS
    PRINT HEAD FOR ALL LAYERS
 UBDSV2 SAVING "STREAMFLOW OUT  " ON UNIT  50 AT TIME STEP  1, STRESS PERIOD   1



 STREAM LISTING     PERIOD      1   STEP        1

 LAYER ROW COL. STREAM  RCH.  FLOW INTO     FLOW TO   FLOW OUT OF   OVRLND.     DIRECT     STREAM       STREAM     STREAM     STREAM   STREAMBED  STREAMBED
                SEG.NO.  NO.  STRM. RCH.    AQUIFER    STRM. RCH.    RUNOFF     PRECIP       ET          HEAD       DEPTH      WIDTH   CONDCTNC.   GRADIENT

   1   13    1     1     1    1.0000E+05 -3.1649E+04   1.3165E+05  0.000E+00  0.000E+00  0.000E+00  4.84193E+01  1.580E-01  2.000E+01  2.000E+04 -1.582E+00
   1   13    2     1     2    1.3165E+05 -4.2107E+04   1.7376E+05  0.000E+00  0.000E+00  0.000E+00  4.79706E+01  1.865E-01  2.000E+01  2.000E+04 -2.105E+00
   1   14    3     1     3    1.7376E+05 -3.7624E+04   2.1138E+05  0.000E+00  0.000E+00  0.000E+00  4.75211E+01  2.143E-01  2.000E+01  2.000E+04 -1.881E+00
   1   15    4     1     4    2.1138E+05 -3.6647E+04   2.4803E+05  0.000E+00  0.000E+00  0.000E+00  4.70678E+01  2.382E-01  2.000E+01  2.000E+04 -1.832E+00
   1   16    5     1     5    2.4803E+05 -3.7519E+04   2.8555E+05  0.000E+00  0.000E+00  0.000E+00  4.66129E+01  2.606E-01  2.000E+01  2.000E+04 -1.876E+00
   1   16    6     1     6    2.8555E+05 -3.2769E+04   3.1831E+05  0.000E+00  0.000E+00  0.000E+00  4.61557E+01  2.807E-01  2.000E+01  2.000E+04 -1.638E+00
   1   16    7     1     7    3.1831E+05 -3.2520E+04   3.5083E+05  0.000E+00  0.000E+00  0.000E+00  4.56963E+01  2.986E-01  2.000E+01  2.000E+04 -1.626E+00
   1   16    8     1     8    3.5083E+05 -3.2632E+04   3.8347E+05  0.000E+00  0.000E+00  0.000E+00  4.52361E+01  3.157E-01  2.000E+01  2.000E+04 -1.632E+00
   1   16    9     1     9    3.8347E+05 -3.2576E+04   4.1604E+05  0.000E+00  0.000E+00  0.000E+00  4.47754E+01  3.322E-01  2.000E+01  2.000E+04 -1.629E+00
   1   16   10     1    10    4.1604E+05 -3.2369E+04   4.4841E+05  0.000E+00  0.000E+00  0.000E+00  4.43140E+01  3.481E-01  2.000E+01  2.000E+04 -1.618E+00
   1   16   11     1    11    4.4841E+05 -3.2589E+04   4.8100E+05  0.000E+00  0.000E+00  0.000E+00  4.38522E+01  3.636E-01  2.000E+01  2.000E+04 -1.629E+00
   1   16   12     1    12    4.8100E+05 -3.7517E+04   5.1852E+05  0.000E+00  0.000E+00  0.000E+00  4.33912E+01  3.798E-01  2.000E+01  2.000E+04 -1.876E+00
   1   15   13     1    13    5.1852E+05 -3.6965E+04   5.5548E+05  0.000E+00  0.000E+00  0.000E+00  4.29307E+01  3.966E-01  2.000E+01  2.000E+04 -1.848E+00
   1   14   14     1    14    5.5548E+05 -3.8073E+04   5.9356E+05  0.000E+00  0.000E+00  0.000E+00  4.24698E+01  4.130E-01  2.000E+01  2.000E+04 -1.904E+00
   1   13   15     1    15    5.9356E+05 -4.0714E+04   6.3427E+05  0.000E+00  0.000E+00  0.000E+00  4.20093E+01  4.297E-01  2.000E+01  2.000E+04 -2.036E+00
   1   12   16     1    16    6.3427E+05 -4.6996E+04   6.8127E+05  0.000E+00  0.000E+00  0.000E+00  4.15502E+01  4.479E-01  2.000E+01  2.000E+04 -2.350E+00
   1   12   17     1    17    6.8127E+05 -3.6637E+04   7.1790E+05  0.000E+00  0.000E+00  0.000E+00  4.10898E+01  4.648E-01  2.000E+01  2.000E+04 -1.832E+00
   1   12   18     1    18    7.1790E+05 -3.4793E+04   7.5270E+05  0.000E+00  0.000E+00  0.000E+00  4.06266E+01  4.789E-01  2.000E+01  2.000E+04 -1.740E+00
   1   12   19     1    19    7.5270E+05 -3.9044E+04   7.9174E+05  0.000E+00  0.000E+00  0.000E+00  4.01636E+01  4.931E-01  2.000E+01  2.000E+04 -1.952E+00
   1   13   20     1    20    7.9174E+05 -2.8801E+04   8.2054E+05  0.000E+00  0.000E+00  0.000E+00  3.96992E+01  5.060E-01  2.000E+01  2.000E+04 -1.440E+00
   1   14   21     1    21    8.2054E+05 -2.0886E+04   8.4143E+05  0.000E+00  0.000E+00  0.000E+00  3.92312E+01  5.153E-01  2.000E+01  2.000E+04 -1.044E+00
   1   14   22     1    22    8.4143E+05 -2.2067E+03   8.4363E+05  0.000E+00  0.000E+00  0.000E+00  3.87582E+01  5.196E-01  2.000E+01  2.000E+04 -1.103E-01
   1    9   30     2     1    5.0000E+04 -2.7227E+04   7.7227E+04  0.000E+00  0.000E+00  0.000E+00  4.02589E+01  1.339E-01  2.000E+01  2.000E+04 -1.361E+00
   1    9   29     2     2    7.7227E+04 -2.9120E+04   1.0635E+05  0.000E+00  0.000E+00  0.000E+00  4.00418E+01  1.668E-01  2.000E+01  2.000E+04 -1.456E+00
   1    9   28     2     3    1.0635E+05 -3.2062E+04   1.3841E+05  0.000E+00  0.000E+00  0.000E+00  3.98232E+01  1.982E-01  2.000E+01  2.000E+04 -1.603E+00
   1    9   27     2     4    1.3841E+05 -4.3324E+04   1.8173E+05  0.000E+00  0.000E+00  0.000E+00  3.96079E+01  2.329E-01  2.000E+01  2.000E+04 -2.166E+00
   1   10   26     2     5    1.8173E+05 -3.2579E+04   2.1431E+05  0.000E+00  0.000E+00  0.000E+00  3.93896E+01  2.646E-01  2.000E+01  2.000E+04 -1.629E+00
   1   11   25     2     6    2.1431E+05 -2.6477E+04   2.4079E+05  0.000E+00  0.000E+00  0.000E+00  3.91626E+01  2.876E-01  2.000E+01  2.000E+04 -1.324E+00
   1   12   24     2     7    2.4079E+05 -2.0688E+04   2.6148E+05  0.000E+00  0.000E+00  0.000E+00  3.89302E+01  3.052E-01  2.000E+01  2.000E+04 -1.034E+00
   1   13   23     2     8    2.6148E+05 -1.5231E+04   2.7671E+05  0.000E+00  0.000E+00  0.000E+00  3.86931E+01  3.181E-01  2.000E+01  2.000E+04 -7.616E-01
   1   14   22     2     9    2.7671E+05 -8.3445E+03   2.8505E+05  0.000E+00  0.000E+00  0.000E+00  3.84514E+01  3.264E-01  2.000E+01  2.000E+04 -4.172E-01
   1   14   22     3     1    1.1287E+06 -1.5940E+04   1.1446E+06  0.000E+00  0.000E+00  0.000E+00  3.80716E+01  5.160E-01  2.000E+01  2.000E+04 -7.970E-01
   1   15   23     3     2    1.1446E+06 -2.4784E+04   1.1694E+06  0.000E+00  0.000E+00  0.000E+00  3.71882E+01  5.216E-01  2.000E+01  2.000E+04 -1.239E+00
   1   15   24     3     3    1.1694E+06 -2.1149E+04   1.1906E+06  0.000E+00  0.000E+00  0.000E+00  3.63055E+01  5.277E-01  2.000E+01  2.000E+04 -1.057E+00
   1   15   25     3     4    1.1906E+06 -2.1180E+04   1.2117E+06  0.000E+00  0.000E+00  0.000E+00  3.54223E+01  5.334E-01  2.000E+01  2.000E+04 -1.059E+00
   1   15   26     3     5    1.2117E+06 -2.4765E+04   1.2365E+06  0.000E+00  0.000E+00  0.000E+00  3.45395E+01  5.395E-01  2.000E+01  2.000E+04 -1.238E+00
   1   16   27     3     6    1.2365E+06 -3.2287E+04   1.2688E+06  0.000E+00  0.000E+00  0.000E+00  3.36581E+01  5.470E-01  2.000E+01  2.000E+04 -1.614E+00
   1   17   28     3     7    1.2688E+06 -3.9338E+04   1.3081E+06  0.000E+00  0.000E+00  0.000E+00  3.27786E+01  5.563E-01  2.000E+01  2.000E+04 -1.967E+00
   1   18   29     3     8    1.3081E+06 -4.9896E+04   1.3580E+06  0.000E+00  0.000E+00  0.000E+00  3.19012E+01  5.678E-01  2.000E+01  2.000E+04 -2.495E+00
   1   18   30     3     9    1.3580E+06 -4.6193E+04   1.4042E+06  0.000E+00  0.000E+00  0.000E+00  3.10245E+01  5.800E-01  2.000E+01  2.000E+04 -2.310E+00



1
              HEAD IN LAYER   1 AT END OF TIME STEP   1 IN STRESS PERIOD    1
  ---------------------------------------------------------------------------

          1      2      3      4      5      6      7      8      9     10
         11     12     13     14     15     16     17     18     19     20
         21     22     23     24     25     26     27     28     29     30
 .........................................................................
   1  ****** ****** ****** ****** ****** ****** ****** ****** ****** ******
      ****** ****** ****** ****** ****** ****** ****** ****** ****** ******
      ****** ****** ****** ****** ****** ****** ****** ****** ****** ******
   2  ****** ****** ****** ****** ****** ****** ****** ****** ****** ******
      ****** ****** ****** ****** ****** ****** ****** ****** ****** ******
      ****** ****** ****** ****** ****** ****** ****** ****** ****** ******
   3  ****** ****** ****** ****** ****** ****** ****** ****** ****** ******
      ****** ****** ****** ****** ****** ****** ****** ****** ****** ******
      ****** ****** ****** ****** ****** ****** ****** ****** ****** ******
   4  ****** ****** ****** ****** ****** ****** ****** ****** ****** ******
      ****** ****** ****** ****** ****** ****** ****** ****** ****** ******
      ****** ****** ****** ****** ****** ****** ****** ****** ****** ******
   5  ****** ****** ****** ****** ****** ****** ****** ****** ****** ******
      ****** ****** ****** ****** ****** ****** ****** ****** ****** ******
      ****** ****** ****** ****** ****** ****** ****** ****** ****** ******
   6  ****** ****** ****** ****** ****** ****** ****** ****** ****** ******
      ****** ****** ****** ****** ****** ****** ****** ****** ****** ******
      ****** ****** ****** ****** ****** ****** ****** ****** ****** ******
   7  ****** ****** ****** ****** ****** ****** ****** ****** ****** ******
      ****** ****** ****** ****** ****** ****** ****** ****** ****** ******
      ****** ****** ****** ****** ****** ****** ****** ****** ****** ******
   8  ****** ****** ****** ****** ****** ****** ****** ****** ****** ******
      ****** ****** ****** ****** ****** ****** ****** ****** ****** ******
      ****** ****** ****** ****** ****** ****** ****** ****** ****** ******
   9  ****** ****** ****** ****** ****** ****** ****** ****** ****** ******
      ****** ****** ****** ****** ****** ****** ****** ****** ****** ******
      ****** ****** ****** ****** ****** ****** ****** ****** ****** ******
  10  ****** ****** ****** ****** ****** ****** ****** ****** ****** ******
      ****** ****** ****** ****** ****** ****** ****** ****** ****** ******
      ****** ****** ****** ****** ****** ****** ****** ****** ****** ******
  11  ****** ****** ****** ****** ****** ****** ****** ****** ****** ******
      ****** ****** ****** ****** ****** ****** ****** ****** ****** ******
      ****** ****** ****** ****** ****** ****** ****** ****** ****** ******
  12  ****** ****** ****** ****** ****** ****** ****** ****** ****** ******
      ****** ****** ****** ****** ****** ****** ****** ****** ****** ******
      ****** ****** ****** ****** ****** ****** ****** ****** ****** ******
  13  ****** ****** ****** ****** ****** ****** ****** ****** ****** ******
      ****** ****** ****** ****** ****** ****** ****** ****** ****** ******
      ****** ****** ****** ****** ****** ****** ****** ****** ****** ******
  14  ****** ****** ****** ****** ****** ****** ****** ****** ****** ******
      ****** ****** ****** ****** ****** ****** ****** ****** ****** ******
      ****** ****** ****** ****** ****** ****** ****** ****** ****** ******
  15  ****** ****** ****** ****** ****** ****** ****** ****** ****** ******
      ****** ****** ****** ****** ****** ****** ****** ****** ****** ******
      ****** ****** ****** ****** ****** ****** ****** ****** ****** ******
  16  ****** ****** ****** ****** ****** ****** ****** ****** ****** ******
      ****** ****** ****** ****** ****** ****** ****** ****** ****** ******
      ****** ****** ****** ****** ****** ****** ****** ****** ****** ******
  17  ****** ****** ****** ****** ****** ****** ****** ****** ****** ******
      ****** ****** ****** ****** ****** ****** ****** ****** ****** ******
      ****** ****** ****** ****** ****** ****** ****** ****** ****** ******
  18  ****** ****** ****** ****** ****** ****** ****** ****** ****** ******
      ****** ****** ****** ****** ****** ****** ****** ****** ****** ******
      ****** ****** ****** ****** ****** ****** ****** ****** ****** ******
  19  ****** ****** ****** ****** ****** ****** ****** ****** ****** ******
      ****** ****** ****** ****** ****** ****** ****** ****** ****** ******
      ****** ****** ****** ****** ****** ****** ****** ****** ****** ******
  20  ****** ****** ****** ****** ****** ****** ****** ****** ****** ******
      ****** ****** ****** ****** ****** ****** ****** ****** ****** ******
      ****** ****** ****** ****** ****** ****** ****** ****** ****** ******
  21  ****** ****** ****** ****** ****** ****** ****** ****** ****** ******
      ****** ****** ****** ****** ****** ****** ****** ****** ****** ******
      ****** ****** ****** ****** ****** ****** ****** ****** ****** ******
  22  ****** ****** ****** ****** ****** ****** ****** ****** ****** ******
      ****** ****** ****** ****** ****** ****** ****** ****** ****** ******
      ****** ****** ****** ****** ****** ****** ****** ****** ****** ******
  23  ****** ****** ****** ****** ****** ****** ****** ****** ****** ******
      ****** ****** ****** ****** ****** ****** ****** ****** ****** ******
      ****** ****** ****** ****** ****** ****** ****** ****** ****** ******
  24  ****** ****** ****** ****** ****** ****** ****** ****** ****** ******
      ****** ****** ****** ****** ****** ****** ****** ****** ****** ******
      ****** ****** ****** ****** ****** ****** ****** ****** ****** ******
  25  ****** ****** ****** ****** ****** ****** ****** ****** ****** ******
      ****** ****** ****** ****** ****** ****** ****** ****** ****** ******
      ****** ****** ****** ****** ****** ****** ****** ****** ****** ******

 HEAD WILL BE SAVED ON UNIT   51 AT END OF TIME STEP    1, STRESS PERIOD    1
1
  VOLUMETRIC BUDGET FOR ENTIRE MODEL AT END OF TIME STEP    1, STRESS PERIOD   1
  ------------------------------------------------------------------------------

     CUMULATIVE VOLUMES      L**3       RATES FOR THIS TIME STEP      L**3/T
     ------------------                 ------------------------

           IN:                                      IN:
           ---                                      ---
             STORAGE =    19463927.2523               STORAGE =      211564.4267
       CONSTANT HEAD =   106672886.5350         CONSTANT HEAD =     1159487.8971
               WELLS =           0.0000                 WELLS =           0.0000
            RECHARGE =     1269600.0000              RECHARGE =       13800.0000
      STREAM LEAKAGE =           0.0000        STREAM LEAKAGE =           0.0000

            TOTAL IN =   127406413.7874              TOTAL IN =     1384852.3238

          OUT:                                     OUT:
          ----                                     ----
             STORAGE =           0.0000               STORAGE =           0.0000
       CONSTANT HEAD =           0.0000         CONSTANT HEAD =           0.0000
               WELLS =    12018588.1274                 WELLS =      130636.8275
            RECHARGE =           0.0000              RECHARGE =           0.0000
      STREAM LEAKAGE =   115387827.3881        STREAM LEAKAGE =     1254215.5151

           TOTAL OUT =   127406415.5155             TOTAL OUT =     1384852.3426

            IN - OUT =          -1.7281              IN - OUT =      -1.8784E-02

 PERCENT DISCREPANCY =          -0.00     PERCENT DISCREPANCY =          -0.00






         TIME SUMMARY AT END OF TIME STEP    1 IN STRESS PERIOD    1
                    SECONDS     MINUTES      HOURS       DAYS        YEARS
                    -----------------------------------------------------------
   TIME STEP LENGTH 7.94880E+06 1.32480E+05  2208.0      92.000     0.25188    
 STRESS PERIOD TIME 7.94880E+06 1.32480E+05  2208.0      92.000     0.25188    
         TOTAL TIME 7.94880E+06 1.32480E+05  2208.0      92.000     0.25188    
1
1
                            STRESS PERIOD NO.    2, LENGTH =   91.00000    
                            -----------------------------------------------

                              NUMBER OF TIME STEPS =     1

                               MULTIPLIER FOR DELT =     1.500

                            INITIAL TIME STEP SIZE =   91.00000    

 WELL NO.  LAYER   ROW   COL   STRESS RATE         
 --------------------------------------------------
      1      1     19     16     -0.2814E+05
      2      1      7     26     -0.5000E+05
      3      1     22     20     -0.5250E+05

      3 WELLS

                 RECHARGE =  2.000000E-03

 REUSING STREAM SEGMENT DATA FROM LAST STRESS PERIOD
 
 SOLVING FOR HEAD 


     6 CALLS TO PCG ROUTINE FOR TIME STEP   1 IN STRESS PERIOD    2
    25 TOTAL ITERATIONS

 OUTPUT CONTROL FOR STRESS PERIOD    2   TIME STEP    1
    SAVE BUDGET
    SAVE HEAD FOR ALL LAYERS
    PRINT HEAD FOR ALL LAYERS
 UBDSV2 SAVING "STREAMFLOW OUT  " ON UNIT  50 AT TIME STEP  1, STRESS PERIOD   2



 STREAM LISTING     PERIOD      2   STEP        1

 LAYER ROW COL. STREAM  RCH.  FLOW INTO     FLOW TO   FLOW OUT OF   OVRLND.     DIRECT     STREAM       STREAM     STREAM     STREAM   STREAMBED  STREAMBED
                SEG.NO.  NO.  STRM. RCH.    AQUIFER    STRM. RCH.    RUNOFF     PRECIP       ET          HEAD       DEPTH      WIDTH   CONDCTNC.   GRADIENT

   1   13    1     1     1    1.0000E+05 -2.8504E+04   1.2850E+05  0.000E+00  0.000E+00  0.000E+00  4.84181E+01  1.567E-01  2.000E+01  2.000E+04 -1.425E+00
   1   13    2     1     2    1.2850E+05 -3.8387E+04   1.6689E+05  0.000E+00  0.000E+00  0.000E+00  4.79669E+01  1.828E-01  2.000E+01  2.000E+04 -1.919E+00
   1   14    3     1     3    1.6689E+05 -3.3803E+04   2.0069E+05  0.000E+00  0.000E+00  0.000E+00  4.75152E+01  2.084E-01  2.000E+01  2.000E+04 -1.690E+00
   1   15    4     1     4    2.0069E+05 -3.2961E+04   2.3366E+05  0.000E+00  0.000E+00  0.000E+00  4.70599E+01  2.304E-01  2.000E+01  2.000E+04 -1.648E+00
   1   16    5     1     5    2.3366E+05 -3.4320E+04   2.6798E+05  0.000E+00  0.000E+00  0.000E+00  4.66034E+01  2.512E-01  2.000E+01  2.000E+04 -1.716E+00
   1   16    6     1     6    2.6798E+05 -2.9944E+04   2.9792E+05  0.000E+00  0.000E+00  0.000E+00  4.61450E+01  2.700E-01  2.000E+01  2.000E+04 -1.497E+00
   1   16    7     1     7    2.9792E+05 -2.9698E+04   3.2762E+05  0.000E+00  0.000E+00  0.000E+00  4.56844E+01  2.867E-01  2.000E+01  2.000E+04 -1.485E+00
   1   16    8     1     8    3.2762E+05 -2.9782E+04   3.5740E+05  0.000E+00  0.000E+00  0.000E+00  4.52232E+01  3.028E-01  2.000E+01  2.000E+04 -1.489E+00
   1   16    9     1     9    3.5740E+05 -2.9707E+04   3.8711E+05  0.000E+00  0.000E+00  0.000E+00  4.47615E+01  3.183E-01  2.000E+01  2.000E+04 -1.485E+00
   1   16   10     1    10    3.8711E+05 -2.9484E+04   4.1659E+05  0.000E+00  0.000E+00  0.000E+00  4.42992E+01  3.332E-01  2.000E+01  2.000E+04 -1.474E+00
   1   16   11     1    11    4.1659E+05 -2.9642E+04   4.4623E+05  0.000E+00  0.000E+00  0.000E+00  4.38364E+01  3.477E-01  2.000E+01  2.000E+04 -1.482E+00
   1   16   12     1    12    4.4623E+05 -3.4067E+04   4.8030E+05  0.000E+00  0.000E+00  0.000E+00  4.33743E+01  3.629E-01  2.000E+01  2.000E+04 -1.703E+00
   1   15   13     1    13    4.8030E+05 -3.2973E+04   5.1327E+05  0.000E+00  0.000E+00  0.000E+00  4.29126E+01  3.785E-01  2.000E+01  2.000E+04 -1.649E+00
   1   14   14     1    14    5.1327E+05 -3.3896E+04   5.4717E+05  0.000E+00  0.000E+00  0.000E+00  4.24504E+01  3.935E-01  2.000E+01  2.000E+04 -1.695E+00
   1   13   15     1    15    5.4717E+05 -3.6595E+04   5.8376E+05  0.000E+00  0.000E+00  0.000E+00  4.19886E+01  4.090E-01  2.000E+01  2.000E+04 -1.830E+00
   1   12   16     1    16    5.8376E+05 -4.3192E+04   6.2696E+05  0.000E+00  0.000E+00  0.000E+00  4.15284E+01  4.261E-01  2.000E+01  2.000E+04 -2.160E+00
   1   12   17     1    17    6.2696E+05 -3.3454E+04   6.6041E+05  0.000E+00  0.000E+00  0.000E+00  4.10671E+01  4.421E-01  2.000E+01  2.000E+04 -1.673E+00
   1   12   18     1    18    6.6041E+05 -3.1697E+04   6.9211E+05  0.000E+00  0.000E+00  0.000E+00  4.06031E+01  4.554E-01  2.000E+01  2.000E+04 -1.585E+00
   1   12   19     1    19    6.9211E+05 -3.5636E+04   7.2774E+05  0.000E+00  0.000E+00  0.000E+00  4.01393E+01  4.689E-01  2.000E+01  2.000E+04 -1.782E+00
   1   13   20     1    20    7.2774E+05 -2.5421E+04   7.5316E+05  0.000E+00  0.000E+00  0.000E+00  3.96740E+01  4.809E-01  2.000E+01  2.000E+04 -1.271E+00
   1   14   21     1    21    7.5316E+05 -1.7988E+04   7.7115E+05  0.000E+00  0.000E+00  0.000E+00  3.92052E+01  4.893E-01  2.000E+01  2.000E+04 -8.994E-01
   1   14   22     1    22    7.7115E+05 -1.1114E+03   7.7226E+05  0.000E+00  0.000E+00  0.000E+00  3.87316E+01  4.929E-01  2.000E+01  2.000E+04 -5.557E-02
   1    9   30     2     1    5.0000E+04 -2.4473E+04   7.4473E+04  0.000E+00  0.000E+00  0.000E+00  4.02571E+01  1.321E-01  2.000E+01  2.000E+04 -1.224E+00
   1    9   29     2     2    7.4473E+04 -2.6387E+04   1.0086E+05  0.000E+00  0.000E+00  0.000E+00  4.00373E+01  1.623E-01  2.000E+01  2.000E+04 -1.319E+00
   1    9   28     2     3    1.0086E+05 -2.9293E+04   1.3015E+05  0.000E+00  0.000E+00  0.000E+00  3.98165E+01  1.915E-01  2.000E+01  2.000E+04 -1.465E+00
   1    9   27     2     4    1.3015E+05 -4.0105E+04   1.7026E+05  0.000E+00  0.000E+00  0.000E+00  3.95992E+01  2.242E-01  2.000E+01  2.000E+04 -2.005E+00
   1   10   26     2     5    1.7026E+05 -2.8993E+04   1.9925E+05  0.000E+00  0.000E+00  0.000E+00  3.93788E+01  2.538E-01  2.000E+01  2.000E+04 -1.450E+00
   1   11   25     2     6    1.9925E+05 -2.2951E+04   2.2220E+05  0.000E+00  0.000E+00  0.000E+00  3.91497E+01  2.747E-01  2.000E+01  2.000E+04 -1.148E+00
   1   12   24     2     7    2.2220E+05 -1.7513E+04   2.3971E+05  0.000E+00  0.000E+00  0.000E+00  3.89152E+01  2.902E-01  2.000E+01  2.000E+04 -8.756E-01
   1   13   23     2     8    2.3971E+05 -1.2658E+04   2.5237E+05  0.000E+00  0.000E+00  0.000E+00  3.86764E+01  3.014E-01  2.000E+01  2.000E+04 -6.329E-01
   1   14   22     2     9    2.5237E+05 -7.0706E+03   2.5944E+05  0.000E+00  0.000E+00  0.000E+00  3.84336E+01  3.086E-01  2.000E+01  2.000E+04 -3.535E-01
   1   14   22     3     1    1.0317E+06 -1.4852E+04   1.0466E+06  0.000E+00  0.000E+00  0.000E+00  3.80445E+01  4.890E-01  2.000E+01  2.000E+04 -7.426E-01
   1   15   23     3     2    1.0466E+06 -2.2120E+04   1.0687E+06  0.000E+00  0.000E+00  0.000E+00  3.71609E+01  4.942E-01  2.000E+01  2.000E+04 -1.106E+00
   1   15   24     3     3    1.0687E+06 -1.8824E+04   1.0875E+06  0.000E+00  0.000E+00  0.000E+00  3.62777E+01  4.999E-01  2.000E+01  2.000E+04 -9.412E-01
   1   15   25     3     4    1.0875E+06 -1.8739E+04   1.1062E+06  0.000E+00  0.000E+00  0.000E+00  3.53940E+01  5.051E-01  2.000E+01  2.000E+04 -9.369E-01
   1   15   26     3     5    1.1062E+06 -2.1727E+04   1.1280E+06  0.000E+00  0.000E+00  0.000E+00  3.45107E+01  5.107E-01  2.000E+01  2.000E+04 -1.086E+00
   1   16   27     3     6    1.1280E+06 -2.8784E+04   1.1568E+06  0.000E+00  0.000E+00  0.000E+00  3.36287E+01  5.176E-01  2.000E+01  2.000E+04 -1.439E+00
   1   17   28     3     7    1.1568E+06 -3.5901E+04   1.1927E+06  0.000E+00  0.000E+00  0.000E+00  3.27486E+01  5.263E-01  2.000E+01  2.000E+04 -1.795E+00
   1   18   29     3     8    1.1927E+06 -4.6968E+04   1.2396E+06  0.000E+00  0.000E+00  0.000E+00  3.18707E+01  5.374E-01  2.000E+01  2.000E+04 -2.348E+00
   1   18   30     3     9    1.2396E+06 -4.3619E+04   1.2832E+06  0.000E+00  0.000E+00  0.000E+00  3.09938E+01  5.493E-01  2.000E+01  2.000E+04 -2.181E+00



1
              HEAD IN LAYER   1 AT END OF TIME STEP   1 IN STRESS PERIOD    2
  ---------------------------------------------------------------------------

          1      2      3      4      5      6      7      8      9     10
         11     12     13     14     15     16     17     18     19     20
         21     22     23     24     25     26     27     28     29     30
 .........................................................................
   1  ****** ****** ****** ****** ****** ****** ****** ****** ****** ******
      ****** ****** ****** ****** ****** ****** ****** ****** ****** ******
      ****** ****** ****** ****** ****** ****** ****** ****** ****** ******
   2  ****** ****** ****** ****** ****** ****** ****** ****** ****** ******
      ****** ****** ****** ****** ****** ****** ****** ****** ****** ******
      ****** ****** ****** ****** ****** ****** ****** ****** ****** ******
   3  ****** ****** ****** ****** ****** ****** ****** ****** ****** ******
      ****** ****** ****** ****** ****** ****** ****** ****** ****** ******
      ****** ****** ****** ****** ****** ****** ****** ****** ****** ******
   4  ****** ****** ****** ****** ****** ****** ****** ****** ****** ******
      ****** ****** ****** ****** ****** ****** ****** ****** ****** ******
      ****** ****** ****** ****** ****** ****** ****** ****** ****** ******
   5  ****** ****** ****** ****** ****** ****** ****** ****** ****** ******
      ****** ****** ****** ****** ****** ****** ****** ****** ****** ******
      ****** ****** ****** ****** ****** ****** ****** ****** ****** ******
   6  ****** ****** ****** ****** ****** ****** ****** ****** ****** ******
      ****** ****** ****** ****** ****** ****** ****** ****** ****** ******
      ****** ****** ****** ****** ****** ****** ****** ****** ****** ******
   7  ****** ****** ****** ****** ****** ****** ****** ****** ****** ******
      ****** ****** ****** ****** ****** ****** ****** ****** ****** ******
      ****** ****** ****** ****** ****** ****** ****** ****** ****** ******
   8  ****** ****** ****** ****** ****** ****** ****** ****** ****** ******
      ****** ****** ****** ****** ****** ****** ****** ****** ****** ******
      ****** ****** ****** ****** ****** ****** ****** ****** ****** ******
   9  ****** ****** ****** ****** ****** ****** ****** ****** ****** ******
      ****** ****** ****** ****** ****** ****** ****** ****** ****** ******
      ****** ****** ****** ****** ****** ****** ****** ****** ****** ******
  10  ****** ****** ****** ****** ****** ****** ****** ****** ****** ******
      ****** ****** ****** ****** ****** ****** ****** ****** ****** ******
      ****** ****** ****** ****** ****** ****** ****** ****** ****** ******
  11  ****** ****** ****** ****** ****** ****** ****** ****** ****** ******
      ****** ****** ****** ****** ****** ****** ****** ****** ****** ******
      ****** ****** ****** ****** ****** ****** ****** ****** ****** ******
  12  ****** ****** ****** ****** ****** ****** ****** ****** ****** ******
      ****** ****** ****** ****** ****** ****** ****** ****** ****** ******
      ****** ****** ****** ****** ****** ****** ****** ****** ****** ******
  13  ****** ****** ****** ****** ****** ****** ****** ****** ****** ******
      ****** ****** ****** ****** ****** ****** ****** ****** ****** ******
      ****** ****** ****** ****** ****** ****** ****** ****** ****** ******
  14  ****** ****** ****** ****** ****** ****** ****** ****** ****** ******
      ****** ****** ****** ****** ****** ****** ****** ****** ****** ******
      ****** ****** ****** ****** ****** ****** ****** ****** ****** ******
  15  ****** ****** ****** ****** ****** ****** ****** ****** ****** ******
      ****** ****** ****** ****** ****** ****** ****** ****** ****** ******
      ****** ****** ****** ****** ****** ****** ****** ****** ****** ******
  16  ****** ****** ****** ****** ****** ****** ****** ****** ****** ******
      ****** ****** ****** ****** ****** ****** ****** ****** ****** ******
      ****** ****** ****** ****** ****** ****** ****** ****** ****** ******
  17  ****** ****** ****** ****** ****** ****** ****** ****** ****** ******
      ****** ****** ****** ****** ****** ****** ****** ****** ****** ******
      ****** ****** ****** ****** ****** ****** ****** ****** ****** ******
  18  ****** ****** ****** ****** ****** ****** ****** ****** ****** ******
      ****** ****** ****** ****** ****** ****** ****** ****** ****** ******
      ****** ****** ****** ****** ****** ****** ****** ****** ****** ******
  19  ****** ****** ****** ****** ****** ****** ****** ****** ****** ******
      ****** ****** ****** ****** ****** ****** ****** ****** ****** ******
      ****** ****** ****** ****** ****** ****** ****** ****** ****** ******
  20  ****** ****** ****** ****** ****** ****** ****** ****** ****** ******
      ****** ****** ****** ****** ****** ****** ****** ****** ****** ******
      ****** ****** ****** ****** ****** ****** ****** ****** ****** ******
  21  ****** ****** ****** ****** ****** ****** ****** ****** ****** ******
      ****** ****** ****** ****** ****** ****** ****** ****** ****** ******
      ****** ****** ****** ****** ****** ****** ****** ****** ****** ******
  22  ****** ****** ****** ****** ****** ****** ****** ****** ****** ******
      ****** ****** ****** ****** ****** ****** ****** ****** ****** ******
      ****** ****** ****** ****** ****** ****** ****** ****** ****** ******
  23  ****** ****** ****** ****** ****** ****** ****** ****** ****** ******
      ****** ****** ****** ****** ****** ****** ****** ****** ****** ******
      ****** ****** ****** ****** ****** ****** ****** ****** ****** ******
  24  ****** ****** ****** ****** ****** ****** ****** ****** ****** ******
      ****** ****** ****** ****** ****** ****** ****** ****** ****** ******
      ****** ****** ****** ****** ****** ****** ****** ****** ****** ******
  25  ****** ****** ****** ****** ****** ****** ****** ****** ****** ******
      ****** ****** ****** ****** ****** ****** ****** ****** ****** ******
      ****** ****** ****** ****** ****** ****** ****** ****** ****** ******

 HEAD WILL BE SAVED ON UNIT   51 AT END OF TIME STEP    1, STRESS PERIOD    2
1
  VOLUMETRIC BUDGET FOR ENTIRE MODEL AT END OF TIME STEP    1, STRESS PERIOD   2
  ------------------------------------------------------------------------------

     CUMULATIVE VOLUMES      L**3       RATES FOR THIS TIME STEP      L**3/T
     ------------------                 ------------------------

           IN:                                      IN:
           ---                                      ---
             STORAGE =    20157048.1894               STORAGE =        7616.7136
       CONSTANT HEAD =   215969218.5268         CONSTANT HEAD =     1201058.5933
               WELLS =           0.0000                 WELLS =           0.0000
            RECHARGE =     6292800.0000              RECHARGE =       55200.0000
      STREAM LEAKAGE =           0.0000        STREAM LEAKAGE =           0.0000

            TOTAL IN =   242419066.7162              TOTAL IN =     1263875.3069

          OUT:                                     OUT:
          ----                                     ----
             STORAGE =           0.0000               STORAGE =           0.0000
       CONSTANT HEAD =           0.0000         CONSTANT HEAD =           0.0000
               WELLS =    23906539.4273                 WELLS =      130636.8275
            RECHARGE =           0.0000              RECHARGE =           0.0000
      STREAM LEAKAGE =   218512530.6924        STREAM LEAKAGE =     1133238.4978

           TOTAL OUT =   242419070.1197             TOTAL OUT =     1263875.3253

            IN - OUT =          -3.4034              IN - OUT =      -1.8410E-02

 PERCENT DISCREPANCY =          -0.00     PERCENT DISCREPANCY =          -0.00






         TIME SUMMARY AT END OF TIME STEP    1 IN STRESS PERIOD    2
                    SECONDS     MINUTES      HOURS       DAYS        YEARS
                    -----------------------------------------------------------
   TIME STEP LENGTH 7.86240E+06 1.31040E+05  2184.0      91.000     0.24914    
 STRESS PERIOD TIME 7.86240E+06 1.31040E+05  2184.0      91.000     0.24914    
         TOTAL TIME 1.58112E+07 2.63520E+05  4392.0      183.00     0.50103    
1
1
                            STRESS PERIOD NO.    3, LENGTH =   91.00000    
                            -----------------------------------------------

                              NUMBER OF TIME STEPS =     1

                               MULTIPLIER FOR DELT =     1.500

                            INITIAL TIME STEP SIZE =   91.00000    

 WELL NO.  LAYER   ROW   COL   STRESS RATE         
 --------------------------------------------------
      1      1     19     16     -0.2814E+05
      2      1      7     26     -0.5000E+05
      3      1     22     20     -0.5250E+05

      3 WELLS

                 RECHARGE =   0.00000    

 REUSING STREAM SEGMENT DATA FROM LAST STRESS PERIOD
 
 SOLVING FOR HEAD 


     6 CALLS TO PCG ROUTINE FOR TIME STEP   1 IN STRESS PERIOD    3
    23 TOTAL ITERATIONS

 OUTPUT CONTROL FOR STRESS PERIOD    3   TIME STEP    1
    SAVE BUDGET
    SAVE HEAD FOR ALL LAYERS
    PRINT HEAD FOR ALL LAYERS
 UBDSV2 SAVING "STREAMFLOW OUT  " ON UNIT  50 AT TIME STEP  1, STRESS PERIOD   3



 STREAM LISTING     PERIOD      3   STEP        1

 LAYER ROW COL. STREAM  RCH.  FLOW INTO     FLOW TO   FLOW OUT OF   OVRLND.     DIRECT     STREAM       STREAM     STREAM     STREAM   STREAMBED  STREAMBED
                SEG.NO.  NO.  STRM. RCH.    AQUIFER    STRM. RCH.    RUNOFF     PRECIP       ET          HEAD       DEPTH      WIDTH   CONDCTNC.   GRADIENT

   1   13    1     1     1    1.0000E+05 -2.7471E+04   1.2747E+05  0.000E+00  0.000E+00  0.000E+00  4.84176E+01  1.563E-01  2.000E+01  2.000E+04 -1.374E+00
   1   13    2     1     2    1.2747E+05 -3.7146E+04   1.6462E+05  0.000E+00  0.000E+00  0.000E+00  4.79656E+01  1.816E-01  2.000E+01  2.000E+04 -1.857E+00
   1   14    3     1     3    1.6462E+05 -3.2603E+04   1.9722E+05  0.000E+00  0.000E+00  0.000E+00  4.75133E+01  2.064E-01  2.000E+01  2.000E+04 -1.630E+00
   1   15    4     1     4    1.9722E+05 -3.1817E+04   2.2904E+05  0.000E+00  0.000E+00  0.000E+00  4.70573E+01  2.278E-01  2.000E+01  2.000E+04 -1.591E+00
   1   16    5     1     5    2.2904E+05 -3.3299E+04   2.6234E+05  0.000E+00  0.000E+00  0.000E+00  4.66003E+01  2.481E-01  2.000E+01  2.000E+04 -1.665E+00
   1   16    6     1     6    2.6234E+05 -2.9053E+04   2.9139E+05  0.000E+00  0.000E+00  0.000E+00  4.61415E+01  2.665E-01  2.000E+01  2.000E+04 -1.453E+00
   1   16    7     1     7    2.9139E+05 -2.8813E+04   3.2020E+05  0.000E+00  0.000E+00  0.000E+00  4.56806E+01  2.829E-01  2.000E+01  2.000E+04 -1.441E+00
   1   16    8     1     8    3.2020E+05 -2.8893E+04   3.4910E+05  0.000E+00  0.000E+00  0.000E+00  4.52190E+01  2.986E-01  2.000E+01  2.000E+04 -1.445E+00
   1   16    9     1     9    3.4910E+05 -2.8817E+04   3.7791E+05  0.000E+00  0.000E+00  0.000E+00  4.47570E+01  3.138E-01  2.000E+01  2.000E+04 -1.441E+00
   1   16   10     1    10    3.7791E+05 -2.8597E+04   4.0651E+05  0.000E+00  0.000E+00  0.000E+00  4.42943E+01  3.284E-01  2.000E+01  2.000E+04 -1.430E+00
   1   16   11     1    11    4.0651E+05 -2.8743E+04   4.3525E+05  0.000E+00  0.000E+00  0.000E+00  4.38313E+01  3.426E-01  2.000E+01  2.000E+04 -1.437E+00
   1   16   12     1    12    4.3525E+05 -3.3019E+04   4.6827E+05  0.000E+00  0.000E+00  0.000E+00  4.33689E+01  3.575E-01  2.000E+01  2.000E+04 -1.651E+00
   1   15   13     1    13    4.6827E+05 -3.1804E+04   5.0008E+05  0.000E+00  0.000E+00  0.000E+00  4.29068E+01  3.727E-01  2.000E+01  2.000E+04 -1.590E+00
   1   14   14     1    14    5.0008E+05 -3.2684E+04   5.3276E+05  0.000E+00  0.000E+00  0.000E+00  4.24442E+01  3.874E-01  2.000E+01  2.000E+04 -1.634E+00
   1   13   15     1    15    5.3276E+05 -3.5390E+04   5.6815E+05  0.000E+00  0.000E+00  0.000E+00  4.19820E+01  4.025E-01  2.000E+01  2.000E+04 -1.769E+00
   1   12   16     1    16    5.6815E+05 -4.2025E+04   6.1018E+05  0.000E+00  0.000E+00  0.000E+00  4.15215E+01  4.192E-01  2.000E+01  2.000E+04 -2.101E+00
   1   12   17     1    17    6.1018E+05 -3.2523E+04   6.4270E+05  0.000E+00  0.000E+00  0.000E+00  4.10600E+01  4.350E-01  2.000E+01  2.000E+04 -1.626E+00
   1   12   18     1    18    6.4270E+05 -3.0813E+04   6.7351E+05  0.000E+00  0.000E+00  0.000E+00  4.05958E+01  4.480E-01  2.000E+01  2.000E+04 -1.541E+00
   1   12   19     1    19    6.7351E+05 -3.4673E+04   7.0819E+05  0.000E+00  0.000E+00  0.000E+00  4.01317E+01  4.613E-01  2.000E+01  2.000E+04 -1.734E+00
   1   13   20     1    20    7.0819E+05 -2.4528E+04   7.3271E+05  0.000E+00  0.000E+00  0.000E+00  3.96662E+01  4.730E-01  2.000E+01  2.000E+04 -1.226E+00
   1   14   21     1    21    7.3271E+05 -1.7220E+04   7.4993E+05  0.000E+00  0.000E+00  0.000E+00  3.91971E+01  4.812E-01  2.000E+01  2.000E+04 -8.610E-01
   1   14   22     1    22    7.4993E+05 -8.4639E+02   7.5078E+05  0.000E+00  0.000E+00  0.000E+00  3.87233E+01  4.847E-01  2.000E+01  2.000E+04 -4.232E-02
   1    9   30     2     1    5.0000E+04 -2.3801E+04   7.3801E+04  0.000E+00  0.000E+00  0.000E+00  4.02567E+01  1.317E-01  2.000E+01  2.000E+04 -1.190E+00
   1    9   29     2     2    7.3801E+04 -2.5715E+04   9.9516E+04  0.000E+00  0.000E+00  0.000E+00  4.00362E+01  1.612E-01  2.000E+01  2.000E+04 -1.286E+00
   1    9   28     2     3    9.9516E+04 -2.8596E+04   1.2811E+05  0.000E+00  0.000E+00  0.000E+00  3.98148E+01  1.898E-01  2.000E+01  2.000E+04 -1.430E+00
   1    9   27     2     4    1.2811E+05 -3.9247E+04   1.6736E+05  0.000E+00  0.000E+00  0.000E+00  3.95970E+01  2.220E-01  2.000E+01  2.000E+04 -1.962E+00
   1   10   26     2     5    1.6736E+05 -2.8099E+04   1.9546E+05  0.000E+00  0.000E+00  0.000E+00  3.93761E+01  2.511E-01  2.000E+01  2.000E+04 -1.405E+00
   1   11   25     2     6    1.9546E+05 -2.2089E+04   2.1755E+05  0.000E+00  0.000E+00  0.000E+00  3.91463E+01  2.713E-01  2.000E+01  2.000E+04 -1.104E+00
   1   12   24     2     7    2.1755E+05 -1.6744E+04   2.3429E+05  0.000E+00  0.000E+00  0.000E+00  3.89114E+01  2.864E-01  2.000E+01  2.000E+04 -8.372E-01
   1   13   23     2     8    2.3429E+05 -1.2036E+04   2.4633E+05  0.000E+00  0.000E+00  0.000E+00  3.86722E+01  2.972E-01  2.000E+01  2.000E+04 -6.018E-01
   1   14   22     2     9    2.4633E+05 -6.7314E+03   2.5306E+05  0.000E+00  0.000E+00  0.000E+00  3.84291E+01  3.041E-01  2.000E+01  2.000E+04 -3.366E-01
   1   14   22     3     1    1.0038E+06 -1.4581E+04   1.0184E+06  0.000E+00  0.000E+00  0.000E+00  3.80366E+01  4.810E-01  2.000E+01  2.000E+04 -7.291E-01
   1   15   23     3     2    1.0184E+06 -2.1412E+04   1.0398E+06  0.000E+00  0.000E+00  0.000E+00  3.71528E+01  4.862E-01  2.000E+01  2.000E+04 -1.071E+00
   1   15   24     3     3    1.0398E+06 -1.8245E+04   1.0581E+06  0.000E+00  0.000E+00  0.000E+00  3.62695E+01  4.918E-01  2.000E+01  2.000E+04 -9.123E-01
   1   15   25     3     4    1.0581E+06 -1.8167E+04   1.0762E+06  0.000E+00  0.000E+00  0.000E+00  3.53858E+01  4.969E-01  2.000E+01  2.000E+04 -9.083E-01
   1   15   26     3     5    1.0762E+06 -2.1059E+04   1.0973E+06  0.000E+00  0.000E+00  0.000E+00  3.45023E+01  5.023E-01  2.000E+01  2.000E+04 -1.053E+00
   1   16   27     3     6    1.0973E+06 -2.7975E+04   1.1253E+06  0.000E+00  0.000E+00  0.000E+00  3.36202E+01  5.091E-01  2.000E+01  2.000E+04 -1.399E+00
   1   17   28     3     7    1.1253E+06 -3.5073E+04   1.1604E+06  0.000E+00  0.000E+00  0.000E+00  3.27399E+01  5.177E-01  2.000E+01  2.000E+04 -1.754E+00
   1   18   29     3     8    1.1604E+06 -4.6196E+04   1.2065E+06  0.000E+00  0.000E+00  0.000E+00  3.18620E+01  5.287E-01  2.000E+01  2.000E+04 -2.310E+00
   1   18   30     3     9    1.2065E+06 -4.2978E+04   1.2495E+06  0.000E+00  0.000E+00  0.000E+00  3.09850E+01  5.405E-01  2.000E+01  2.000E+04 -2.149E+00



1
              HEAD IN LAYER   1 AT END OF TIME STEP   1 IN STRESS PERIOD    3
  ---------------------------------------------------------------------------

          1      2      3      4      5      6      7      8      9     10
         11     12     13     14     15     16     17     18     19     20
         21     22     23     24     25     26     27     28     29     30
 .........................................................................
   1  ****** ****** ****** ****** ****** ****** ****** ****** ****** ******
      ****** ****** ****** ****** ****** ****** ****** ****** ****** ******
      ****** ****** ****** ****** ****** ****** ****** ****** ****** ******
   2  ****** ****** ****** ****** ****** ****** ****** ****** ****** ******
      ****** ****** ****** ****** ****** ****** ****** ****** ****** ******
      ****** ****** ****** ****** ****** ****** ****** ****** ****** ******
   3  ****** ****** ****** ****** ****** ****** ****** ****** ****** ******
      ****** ****** ****** ****** ****** ****** ****** ****** ****** ******
      ****** ****** ****** ****** ****** ****** ****** ****** ****** ******
   4  ****** ****** ****** ****** ****** ****** ****** ****** ****** ******
      ****** ****** ****** ****** ****** ****** ****** ****** ****** ******
      ****** ****** ****** ****** ****** ****** ****** ****** ****** ******
   5  ****** ****** ****** ****** ****** ****** ****** ****** ****** ******
      ****** ****** ****** ****** ****** ****** ****** ****** ****** ******
      ****** ****** ****** ****** ****** ****** ****** ****** ****** ******
   6  ****** ****** ****** ****** ****** ****** ****** ****** ****** ******
      ****** ****** ****** ****** ****** ****** ****** ****** ****** ******
      ****** ****** ****** ****** ****** ****** ****** ****** ****** ******
   7  ****** ****** ****** ****** ****** ****** ****** ****** ****** ******
      ****** ****** ****** ****** ****** ****** ****** ****** ****** ******
      ****** ****** ****** ****** ****** ****** ****** ****** ****** ******
   8  ****** ****** ****** ****** ****** ****** ****** ****** ****** ******
      ****** ****** ****** ****** ****** ****** ****** ****** ****** ******
      ****** ****** ****** ****** ****** ****** ****** ****** ****** ******
   9  ****** ****** ****** ****** ****** ****** ****** ****** ****** ******
      ****** ****** ****** ****** ****** ****** ****** ****** ****** ******
      ****** ****** ****** ****** ****** ****** ****** ****** ****** ******
  10  ****** ****** ****** ****** ****** ****** ****** ****** ****** ******
      ****** ****** ****** ****** ****** ****** ****** ****** ****** ******
      ****** ****** ****** ****** ****** ****** ****** ****** ****** ******
  11  ****** ****** ****** ****** ****** ****** ****** ****** ****** ******
      ****** ****** ****** ****** ****** ****** ****** ****** ****** ******
      ****** ****** ****** ****** ****** ****** ****** ****** ****** ******
  12  ****** ****** ****** ****** ****** ****** ****** ****** ****** ******
      ****** ****** ****** ****** ****** ****** ****** ****** ****** ******
      ****** ****** ****** ****** ****** ****** ****** ****** ****** ******
  13  ****** ****** ****** ****** ****** ****** ****** ****** ****** ******
      ****** ****** ****** ****** ****** ****** ****** ****** ****** ******
      ****** ****** ****** ****** ****** ****** ****** ****** ****** ******
  14  ****** ****** ****** ****** ****** ****** ****** ****** ****** ******
      ****** ****** ****** ****** ****** ****** ****** ****** ****** ******
      ****** ****** ****** ****** ****** ****** ****** ****** ****** ******
  15  ****** ****** ****** ****** ****** ****** ****** ****** ****** ******
      ****** ****** ****** ****** ****** ****** ****** ****** ****** ******
      ****** ****** ****** ****** ****** ****** ****** ****** ****** ******
  16  ****** ****** ****** ****** ****** ****** ****** ****** ****** ******
      ****** ****** ****** ****** ****** ****** ****** ****** ****** ******
      ****** ****** ****** ****** ****** ****** ****** ****** ****** ******
  17  ****** ****** ****** ****** ****** ****** ****** ****** ****** ******
      ****** ****** ****** ****** ****** ****** ****** ****** ****** ******
      ****** ****** ****** ****** ****** ****** ****** ****** ****** ******
  18  ****** ****** ****** ****** ****** ****** ****** ****** ****** ******
      ****** ****** ****** ****** ****** ****** ****** ****** ****** ******
      ****** ****** ****** ****** ****** ****** ****** ****** ****** ******
  19  ****** ****** ****** ****** ****** ****** ****** ****** ****** ******
      ****** ****** ****** ****** ****** ****** ****** ****** ****** ******
      ****** ****** ****** ****** ****** ****** ****** ****** ****** ******
  20  ****** ****** ****** ****** ****** ****** ****** ****** ****** ******
      ****** ****** ****** ****** ****** ****** ****** ****** ****** ******
      ****** ****** ****** ****** ****** ****** ****** ****** ****** ******
  21  ****** ****** ****** ****** ****** ****** ****** ****** ****** ******
      ****** ****** ****** ****** ****** ****** ****** ****** ****** ******
      ****** ****** ****** ****** ****** ****** ****** ****** ****** ******
  22  ****** ****** ****** ****** ****** ****** ****** ****** ****** ******
      ****** ****** ****** ****** ****** ****** ****** ****** ****** ******
      ****** ****** ****** ****** ****** ****** ****** ****** ****** ******
  23  ****** ****** ****** ****** ****** ****** ****** ****** ****** ******
      ****** ****** ****** ****** ****** ****** ****** ****** ****** ******
      ****** ****** ****** ****** ****** ****** ****** ****** ****** ******
  24  ****** ****** ****** ****** ****** ****** ****** ****** ****** ******
      ****** ****** ****** ****** ****** ****** ****** ****** ****** ******
      ****** ****** ****** ****** ****** ****** ****** ****** ****** ******
  25  ****** ****** ****** ****** ****** ****** ****** ****** ****** ******
      ****** ****** ****** ****** ****** ****** ****** ****** ****** ******
      ****** ****** ****** ****** ****** ****** ****** ****** ****** ******

 HEAD WILL BE SAVED ON UNIT   51 AT END OF TIME STEP    1, STRESS PERIOD    3
1
  VOLUMETRIC BUDGET FOR ENTIRE MODEL AT END OF TIME STEP    1, STRESS PERIOD   3
  ------------------------------------------------------------------------------

     CUMULATIVE VOLUMES      L**3       RATES FOR THIS TIME STEP      L**3/T
     ------------------                 ------------------------

           IN:                                      IN:
           ---                                      ---
             STORAGE =    20435419.0472               STORAGE =        3059.0204
       CONSTANT HEAD =   327635686.9386         CONSTANT HEAD =     1227104.0485
               WELLS =           0.0000                 WELLS =           0.0000
            RECHARGE =     6292800.0000              RECHARGE =           0.0000
      STREAM LEAKAGE =           0.0000        STREAM LEAKAGE =           0.0000

            TOTAL IN =   354363905.9858              TOTAL IN =     1230163.0689

          OUT:                                     OUT:
          ----                                     ----
             STORAGE =           0.0000               STORAGE =           0.0000
       CONSTANT HEAD =           0.0000         CONSTANT HEAD =           0.0000
               WELLS =    35794490.7271                 WELLS =      130636.8275
            RECHARGE =           0.0000              RECHARGE =           0.0000
      STREAM LEAKAGE =   318569422.6591        STREAM LEAKAGE =     1099526.2853

           TOTAL OUT =   354363913.3862             TOTAL OUT =     1230163.1128

            IN - OUT =          -7.4004              IN - OUT =      -4.3923E-02

 PERCENT DISCREPANCY =          -0.00     PERCENT DISCREPANCY =          -0.00






         TIME SUMMARY AT END OF TIME STEP    1 IN STRESS PERIOD    3
                    SECONDS     MINUTES      HOURS       DAYS        YEARS
                    -----------------------------------------------------------
   TIME STEP LENGTH 7.86240E+06 1.31040E+05  2184.0      91.000     0.24914    
 STRESS PERIOD TIME 7.86240E+06 1.31040E+05  2184.0      91.000     0.24914    
         TOTAL TIME 2.36736E+07 3.94560E+05  6576.0      274.00     0.75017    
1
1
                            STRESS PERIOD NO.    4, LENGTH =   91.00000    
                            -----------------------------------------------

                              NUMBER OF TIME STEPS =     1

                               MULTIPLIER FOR DELT =     1.500

                            INITIAL TIME STEP SIZE =   91.00000    

 WELL NO.  LAYER   ROW   COL   STRESS RATE         
 --------------------------------------------------
      1      1     19     16     -0.2814E+05
      2      1      7     26     -0.5000E+05
      3      1     22     20     -0.5250E+05

      3 WELLS

                 RECHARGE =  1.000000E-03

 REUSING STREAM SEGMENT DATA FROM LAST STRESS PERIOD
 
 SOLVING FOR HEAD 


     6 CALLS TO PCG ROUTINE FOR TIME STEP   1 IN STRESS PERIOD    4
    22 TOTAL ITERATIONS

 OUTPUT CONTROL FOR STRESS PERIOD    4   TIME STEP    1
    SAVE BUDGET
    SAVE HEAD FOR ALL LAYERS
    PRINT HEAD FOR ALL LAYERS
 UBDSV2 SAVING "STREAMFLOW OUT  " ON UNIT  50 AT TIME STEP  1, STRESS PERIOD   4



 STREAM LISTING     PERIOD      4   STEP        1

 LAYER ROW COL. STREAM  RCH.  FLOW INTO     FLOW TO   FLOW OUT OF   OVRLND.     DIRECT     STREAM       STREAM     STREAM     STREAM   STREAMBED  STREAMBED
                SEG.NO.  NO.  STRM. RCH.    AQUIFER    STRM. RCH.    RUNOFF     PRECIP       ET          HEAD       DEPTH      WIDTH   CONDCTNC.   GRADIENT

   1   13    1     1     1    1.0000E+05 -2.7852E+04   1.2785E+05  0.000E+00  0.000E+00  0.000E+00  4.84178E+01  1.564E-01  2.000E+01  2.000E+04 -1.393E+00
   1   13    2     1     2    1.2785E+05 -3.7597E+04   1.6545E+05  0.000E+00  0.000E+00  0.000E+00  4.79661E+01  1.820E-01  2.000E+01  2.000E+04 -1.880E+00
   1   14    3     1     3    1.6545E+05 -3.3052E+04   1.9850E+05  0.000E+00  0.000E+00  0.000E+00  4.75140E+01  2.072E-01  2.000E+01  2.000E+04 -1.653E+00
   1   15    4     1     4    1.9850E+05 -3.2253E+04   2.3075E+05  0.000E+00  0.000E+00  0.000E+00  4.70583E+01  2.287E-01  2.000E+01  2.000E+04 -1.613E+00
   1   16    5     1     5    2.3075E+05 -3.3696E+04   2.6445E+05  0.000E+00  0.000E+00  0.000E+00  4.66015E+01  2.492E-01  2.000E+01  2.000E+04 -1.685E+00
   1   16    6     1     6    2.6445E+05 -2.9397E+04   2.9385E+05  0.000E+00  0.000E+00  0.000E+00  4.61428E+01  2.678E-01  2.000E+01  2.000E+04 -1.470E+00
   1   16    7     1     7    2.9385E+05 -2.9153E+04   3.2300E+05  0.000E+00  0.000E+00  0.000E+00  4.56821E+01  2.843E-01  2.000E+01  2.000E+04 -1.458E+00
   1   16    8     1     8    3.2300E+05 -2.9234E+04   3.5223E+05  0.000E+00  0.000E+00  0.000E+00  4.52206E+01  3.002E-01  2.000E+01  2.000E+04 -1.462E+00
   1   16    9     1     9    3.5223E+05 -2.9157E+04   3.8139E+05  0.000E+00  0.000E+00  0.000E+00  4.47587E+01  3.155E-01  2.000E+01  2.000E+04 -1.458E+00
   1   16   10     1    10    3.8139E+05 -2.8936E+04   4.1033E+05  0.000E+00  0.000E+00  0.000E+00  4.42962E+01  3.303E-01  2.000E+01  2.000E+04 -1.447E+00
   1   16   11     1    11    4.1033E+05 -2.9088E+04   4.3941E+05  0.000E+00  0.000E+00  0.000E+00  4.38332E+01  3.446E-01  2.000E+01  2.000E+04 -1.454E+00
   1   16   12     1    12    4.3941E+05 -3.3421E+04   4.7284E+05  0.000E+00  0.000E+00  0.000E+00  4.33709E+01  3.596E-01  2.000E+01  2.000E+04 -1.671E+00
   1   15   13     1    13    4.7284E+05 -3.2246E+04   5.0508E+05  0.000E+00  0.000E+00  0.000E+00  4.29090E+01  3.749E-01  2.000E+01  2.000E+04 -1.612E+00
   1   14   14     1    14    5.0508E+05 -3.3137E+04   5.3822E+05  0.000E+00  0.000E+00  0.000E+00  4.24465E+01  3.897E-01  2.000E+01  2.000E+04 -1.657E+00
   1   13   15     1    15    5.3822E+05 -3.5839E+04   5.7406E+05  0.000E+00  0.000E+00  0.000E+00  4.19845E+01  4.050E-01  2.000E+01  2.000E+04 -1.792E+00
   1   12   16     1    16    5.7406E+05 -4.2456E+04   6.1651E+05  0.000E+00  0.000E+00  0.000E+00  4.15241E+01  4.219E-01  2.000E+01  2.000E+04 -2.123E+00
   1   12   17     1    17    6.1651E+05 -3.2874E+04   6.4939E+05  0.000E+00  0.000E+00  0.000E+00  4.10627E+01  4.377E-01  2.000E+01  2.000E+04 -1.644E+00
   1   12   18     1    18    6.4939E+05 -3.1151E+04   6.8054E+05  0.000E+00  0.000E+00  0.000E+00  4.05985E+01  4.508E-01  2.000E+01  2.000E+04 -1.558E+00
   1   12   19     1    19    6.8054E+05 -3.5044E+04   7.1558E+05  0.000E+00  0.000E+00  0.000E+00  4.01346E+01  4.642E-01  2.000E+01  2.000E+04 -1.752E+00
   1   13   20     1    20    7.1558E+05 -2.4879E+04   7.4046E+05  0.000E+00  0.000E+00  0.000E+00  3.96692E+01  4.760E-01  2.000E+01  2.000E+04 -1.244E+00
   1   14   21     1    21    7.4046E+05 -1.7523E+04   7.5798E+05  0.000E+00  0.000E+00  0.000E+00  3.92002E+01  4.843E-01  2.000E+01  2.000E+04 -8.762E-01
   1   14   22     1    22    7.5798E+05 -9.5521E+02   7.5894E+05  0.000E+00  0.000E+00  0.000E+00  3.87265E+01  4.878E-01  2.000E+01  2.000E+04 -4.776E-02
   1    9   30     2     1    5.0000E+04 -2.4079E+04   7.4079E+04  0.000E+00  0.000E+00  0.000E+00  4.02569E+01  1.319E-01  2.000E+01  2.000E+04 -1.204E+00
   1    9   29     2     2    7.4079E+04 -2.5993E+04   1.0007E+05  0.000E+00  0.000E+00  0.000E+00  4.00366E+01  1.616E-01  2.000E+01  2.000E+04 -1.300E+00
   1    9   28     2     3    1.0007E+05 -2.8883E+04   1.2896E+05  0.000E+00  0.000E+00  0.000E+00  3.98155E+01  1.905E-01  2.000E+01  2.000E+04 -1.444E+00
   1    9   27     2     4    1.2896E+05 -3.9594E+04   1.6855E+05  0.000E+00  0.000E+00  0.000E+00  3.95979E+01  2.229E-01  2.000E+01  2.000E+04 -1.980E+00
   1   10   26     2     5    1.6855E+05 -2.8460E+04   1.9701E+05  0.000E+00  0.000E+00  0.000E+00  3.93772E+01  2.522E-01  2.000E+01  2.000E+04 -1.423E+00
   1   11   25     2     6    1.9701E+05 -2.2437E+04   2.1945E+05  0.000E+00  0.000E+00  0.000E+00  3.91477E+01  2.727E-01  2.000E+01  2.000E+04 -1.122E+00
   1   12   24     2     7    2.1945E+05 -1.7056E+04   2.3650E+05  0.000E+00  0.000E+00  0.000E+00  3.89129E+01  2.879E-01  2.000E+01  2.000E+04 -8.528E-01
   1   13   23     2     8    2.3650E+05 -1.2290E+04   2.4879E+05  0.000E+00  0.000E+00  0.000E+00  3.86739E+01  2.989E-01  2.000E+01  2.000E+04 -6.145E-01
   1   14   22     2     9    2.4879E+05 -6.8660E+03   2.5566E+05  0.000E+00  0.000E+00  0.000E+00  3.84309E+01  3.059E-01  2.000E+01  2.000E+04 -3.433E-01
   1   14   22     3     1    1.0146E+06 -1.4691E+04   1.0293E+06  0.000E+00  0.000E+00  0.000E+00  3.80397E+01  4.841E-01  2.000E+01  2.000E+04 -7.346E-01
   1   15   23     3     2    1.0293E+06 -2.1696E+04   1.0510E+06  0.000E+00  0.000E+00  0.000E+00  3.71559E+01  4.893E-01  2.000E+01  2.000E+04 -1.085E+00
   1   15   24     3     3    1.0510E+06 -1.8482E+04   1.0695E+06  0.000E+00  0.000E+00  0.000E+00  3.62727E+01  4.949E-01  2.000E+01  2.000E+04 -9.241E-01
   1   15   25     3     4    1.0695E+06 -1.8403E+04   1.0879E+06  0.000E+00  0.000E+00  0.000E+00  3.53890E+01  5.001E-01  2.000E+01  2.000E+04 -9.202E-01
   1   15   26     3     5    1.0879E+06 -2.1335E+04   1.1092E+06  0.000E+00  0.000E+00  0.000E+00  3.45056E+01  5.056E-01  2.000E+01  2.000E+04 -1.067E+00
   1   16   27     3     6    1.1092E+06 -2.8307E+04   1.1375E+06  0.000E+00  0.000E+00  0.000E+00  3.36235E+01  5.124E-01  2.000E+01  2.000E+04 -1.415E+00
   1   17   28     3     7    1.1375E+06 -3.5414E+04   1.1729E+06  0.000E+00  0.000E+00  0.000E+00  3.27433E+01  5.211E-01  2.000E+01  2.000E+04 -1.771E+00
   1   18   29     3     8    1.1729E+06 -4.6515E+04   1.2194E+06  0.000E+00  0.000E+00  0.000E+00  3.18654E+01  5.321E-01  2.000E+01  2.000E+04 -2.326E+00
   1   18   30     3     9    1.2194E+06 -4.3246E+04   1.2627E+06  0.000E+00  0.000E+00  0.000E+00  3.09884E+01  5.440E-01  2.000E+01  2.000E+04 -2.162E+00



1
              HEAD IN LAYER   1 AT END OF TIME STEP   1 IN STRESS PERIOD    4
  ---------------------------------------------------------------------------

          1      2      3      4      5      6      7      8      9     10
         11     12     13     14     15     16     17     18     19     20
         21     22     23     24     25     26     27     28     29     30
 .........................................................................
   1  ****** ****** ****** ****** ****** ****** ****** ****** ****** ******
      ****** ****** ****** ****** ****** ****** ****** ****** ****** ******
      ****** ****** ****** ****** ****** ****** ****** ****** ****** ******
   2  ****** ****** ****** ****** ****** ****** ****** ****** ****** ******
      ****** ****** ****** ****** ****** ****** ****** ****** ****** ******
      ****** ****** ****** ****** ****** ****** ****** ****** ****** ******
   3  ****** ****** ****** ****** ****** ****** ****** ****** ****** ******
      ****** ****** ****** ****** ****** ****** ****** ****** ****** ******
      ****** ****** ****** ****** ****** ****** ****** ****** ****** ******
   4  ****** ****** ****** ****** ****** ****** ****** ****** ****** ******
      ****** ****** ****** ****** ****** ****** ****** ****** ****** ******
      ****** ****** ****** ****** ****** ****** ****** ****** ****** ******
   5  ****** ****** ****** ****** ****** ****** ****** ****** ****** ******
      ****** ****** ****** ****** ****** ****** ****** ****** ****** ******
      ****** ****** ****** ****** ****** ****** ****** ****** ****** ******
   6  ****** ****** ****** ****** ****** ****** ****** ****** ****** ******
      ****** ****** ****** ****** ****** ****** ****** ****** ****** ******
      ****** ****** ****** ****** ****** ****** ****** ****** ****** ******
   7  ****** ****** ****** ****** ****** ****** ****** ****** ****** ******
      ****** ****** ****** ****** ****** ****** ****** ****** ****** ******
      ****** ****** ****** ****** ****** ****** ****** ****** ****** ******
   8  ****** ****** ****** ****** ****** ****** ****** ****** ****** ******
      ****** ****** ****** ****** ****** ****** ****** ****** ****** ******
      ****** ****** ****** ****** ****** ****** ****** ****** ****** ******
   9  ****** ****** ****** ****** ****** ****** ****** ****** ****** ******
      ****** ****** ****** ****** ****** ****** ****** ****** ****** ******
      ****** ****** ****** ****** ****** ****** ****** ****** ****** ******
  10  ****** ****** ****** ****** ****** ****** ****** ****** ****** ******
      ****** ****** ****** ****** ****** ****** ****** ****** ****** ******
      ****** ****** ****** ****** ****** ****** ****** ****** ****** ******
  11  ****** ****** ****** ****** ****** ****** ****** ****** ****** ******
      ****** ****** ****** ****** ****** ****** ****** ****** ****** ******
      ****** ****** ****** ****** ****** ****** ****** ****** ****** ******
  12  ****** ****** ****** ****** ****** ****** ****** ****** ****** ******
      ****** ****** ****** ****** ****** ****** ****** ****** ****** ******
      ****** ****** ****** ****** ****** ****** ****** ****** ****** ******
  13  ****** ****** ****** ****** ****** ****** ****** ****** ****** ******
      ****** ****** ****** ****** ****** ****** ****** ****** ****** ******
      ****** ****** ****** ****** ****** ****** ****** ****** ****** ******
  14  ****** ****** ****** ****** ****** ****** ****** ****** ****** ******
      ****** ****** ****** ****** ****** ****** ****** ****** ****** ******
      ****** ****** ****** ****** ****** ****** ****** ****** ****** ******
  15  ****** ****** ****** ****** ****** ****** ****** ****** ****** ******
      ****** ****** ****** ****** ****** ****** ****** ****** ****** ******
      ****** ****** ****** ****** ****** ****** ****** ****** ****** ******
  16  ****** ****** ****** ****** ****** ****** ****** ****** ****** ******
      ****** ****** ****** ****** ****** ****** ****** ****** ****** ******
      ****** ****** ****** ****** ****** ****** ****** ****** ****** ******
  17  ****** ****** ****** ****** ****** ****** ****** ****** ****** ******
      ****** ****** ****** ****** ****** ****** ****** ****** ****** ******
      ****** ****** ****** ****** ****** ****** ****** ****** ****** ******
  18  ****** ****** ****** ****** ****** ****** ****** ****** ****** ******
      ****** ****** ****** ****** ****** ****** ****** ****** ****** ******
      ****** ****** ****** ****** ****** ****** ****** ****** ****** ******
  19  ****** ****** ****** ****** ****** ****** ****** ****** ****** ******
      ****** ****** ****** ****** ****** ****** ****** ****** ****** ******
      ****** ****** ****** ****** ****** ****** ****** ****** ****** ******
  20  ****** ****** ****** ****** ****** ****** ****** ****** ****** ******
      ****** ****** ****** ****** ****** ****** ****** ****** ****** ******
      ****** ****** ****** ****** ****** ****** ****** ****** ****** ******
  21  ****** ****** ****** ****** ****** ****** ****** ****** ****** ******
      ****** ****** ****** ****** ****** ****** ****** ****** ****** ******
      ****** ****** ****** ****** ****** ****** ****** ****** ****** ******
  22  ****** ****** ****** ****** ****** ****** ****** ****** ****** ******
      ****** ****** ****** ****** ****** ****** ****** ****** ****** ******
      ****** ****** ****** ****** ****** ****** ****** ****** ****** ******
  23  ****** ****** ****** ****** ****** ****** ****** ****** ****** ******
      ****** ****** ****** ****** ****** ****** ****** ****** ****** ******
      ****** ****** ****** ****** ****** ****** ****** ****** ****** ******
  24  ****** ****** ****** ****** ****** ****** ****** ****** ****** ******
      ****** ****** ****** ****** ****** ****** ****** ****** ****** ******
      ****** ****** ****** ****** ****** ****** ****** ****** ****** ******
  25  ****** ****** ****** ****** ****** ****** ****** ****** ****** ******
      ****** ****** ****** ****** ****** ****** ****** ****** ****** ******
      ****** ****** ****** ****** ****** ****** ****** ****** ****** ******

 HEAD WILL BE SAVED ON UNIT   51 AT END OF TIME STEP    1, STRESS PERIOD    4
1
  VOLUMETRIC BUDGET FOR ENTIRE MODEL AT END OF TIME STEP    1, STRESS PERIOD   4
  ------------------------------------------------------------------------------

     CUMULATIVE VOLUMES      L**3       RATES FOR THIS TIME STEP      L**3/T
     ------------------                 ------------------------

           IN:                                      IN:
           ---                                      ---
             STORAGE =    20435419.0472               STORAGE =           0.0000
       CONSTANT HEAD =   438369825.0519         CONSTANT HEAD =     1216858.6606
               WELLS =           0.0000                 WELLS =           0.0000
            RECHARGE =     8804400.0000              RECHARGE =       27600.0000
      STREAM LEAKAGE =           0.0000        STREAM LEAKAGE =           0.0000

            TOTAL IN =   467609644.0991              TOTAL IN =     1244458.6606

          OUT:                                     OUT:
          ----                                     ----
             STORAGE =      103321.4918               STORAGE =        1135.4010
       CONSTANT HEAD =           0.0000         CONSTANT HEAD =           0.0000
               WELLS =    47682442.0270                 WELLS =      130636.8275
            RECHARGE =           0.0000              RECHARGE =           0.0000
      STREAM LEAKAGE =   419823886.1152        STREAM LEAKAGE =     1112686.4116

           TOTAL OUT =   467609649.6341             TOTAL OUT =     1244458.6401

            IN - OUT =          -5.5350              IN - OUT =       2.0500E-02

 PERCENT DISCREPANCY =          -0.00     PERCENT DISCREPANCY =           0.00






         TIME SUMMARY AT END OF TIME STEP    1 IN STRESS PERIOD    4
                    SECONDS     MINUTES      HOURS       DAYS        YEARS
                    -----------------------------------------------------------
   TIME STEP LENGTH 7.86240E+06 1.31040E+05  2184.0      91.000     0.24914    
 STRESS PERIOD TIME 7.86240E+06 1.31040E+05  2184.0      91.000     0.24914    
         TOTAL TIME 3.15360E+07 5.25600E+05  8760.0      365.00     0.99932    
1
1
                            STRESS PERIOD NO.    5, LENGTH =   92.00000    
                            -----------------------------------------------

                              NUMBER OF TIME STEPS =     1

                               MULTIPLIER FOR DELT =     1.500

                            INITIAL TIME STEP SIZE =   92.00000    

 WELL NO.  LAYER   ROW   COL   STRESS RATE         
 --------------------------------------------------
      1      1     19     16     -0.2814E+05
      2      1      7     26     -0.5000E+05
      3      1     22     20     -0.5250E+05

      3 WELLS

                 RECHARGE =  5.000000E-04

 REUSING STREAM SEGMENT DATA FROM LAST STRESS PERIOD
 
 SOLVING FOR HEAD 


     5 CALLS TO PCG ROUTINE FOR TIME STEP   1 IN STRESS PERIOD    5
    20 TOTAL ITERATIONS

 OUTPUT CONTROL FOR STRESS PERIOD    5   TIME STEP    1
    SAVE BUDGET
    SAVE HEAD FOR ALL LAYERS
    PRINT HEAD FOR ALL LAYERS
 UBDSV2 SAVING "STREAMFLOW OUT  " ON UNIT  50 AT TIME STEP  1, STRESS PERIOD   5



 STREAM LISTING     PERIOD      5   STEP        1

 LAYER ROW COL. STREAM  RCH.  FLOW INTO     FLOW TO   FLOW OUT OF   OVRLND.     DIRECT     STREAM       STREAM     STREAM     STREAM   STREAMBED  STREAMBED
                SEG.NO.  NO.  STRM. RCH.    AQUIFER    STRM. RCH.    RUNOFF     PRECIP       ET          HEAD       DEPTH      WIDTH   CONDCTNC.   GRADIENT

   1   13    1     1     1    1.0000E+05 -2.7652E+04   1.2765E+05  0.000E+00  0.000E+00  0.000E+00  4.84177E+01  1.563E-01  2.000E+01  2.000E+04 -1.383E+00
   1   13    2     1     2    1.2765E+05 -3.7360E+04   1.6501E+05  0.000E+00  0.000E+00  0.000E+00  4.79659E+01  1.818E-01  2.000E+01  2.000E+04 -1.868E+00
   1   14    3     1     3    1.6501E+05 -3.2817E+04   1.9783E+05  0.000E+00  0.000E+00  0.000E+00  4.75136E+01  2.068E-01  2.000E+01  2.000E+04 -1.641E+00
   1   15    4     1     4    1.9783E+05 -3.2027E+04   2.2986E+05  0.000E+00  0.000E+00  0.000E+00  4.70578E+01  2.282E-01  2.000E+01  2.000E+04 -1.601E+00
   1   16    5     1     5    2.2986E+05 -3.3491E+04   2.6335E+05  0.000E+00  0.000E+00  0.000E+00  4.66009E+01  2.486E-01  2.000E+01  2.000E+04 -1.675E+00
   1   16    6     1     6    2.6335E+05 -2.9219E+04   2.9257E+05  0.000E+00  0.000E+00  0.000E+00  4.61421E+01  2.671E-01  2.000E+01  2.000E+04 -1.461E+00
   1   16    7     1     7    2.9257E+05 -2.8977E+04   3.2154E+05  0.000E+00  0.000E+00  0.000E+00  4.56813E+01  2.836E-01  2.000E+01  2.000E+04 -1.449E+00
   1   16    8     1     8    3.2154E+05 -2.9057E+04   3.5060E+05  0.000E+00  0.000E+00  0.000E+00  4.52198E+01  2.994E-01  2.000E+01  2.000E+04 -1.453E+00
   1   16    9     1     9    3.5060E+05 -2.8981E+04   3.7958E+05  0.000E+00  0.000E+00  0.000E+00  4.47578E+01  3.146E-01  2.000E+01  2.000E+04 -1.449E+00
   1   16   10     1    10    3.7958E+05 -2.8760E+04   4.0834E+05  0.000E+00  0.000E+00  0.000E+00  4.42952E+01  3.293E-01  2.000E+01  2.000E+04 -1.438E+00
   1   16   11     1    11    4.0834E+05 -2.8909E+04   4.3725E+05  0.000E+00  0.000E+00  0.000E+00  4.38322E+01  3.436E-01  2.000E+01  2.000E+04 -1.445E+00
   1   16   12     1    12    4.3725E+05 -3.3213E+04   4.7046E+05  0.000E+00  0.000E+00  0.000E+00  4.33699E+01  3.585E-01  2.000E+01  2.000E+04 -1.661E+00
   1   15   13     1    13    4.7046E+05 -3.2017E+04   5.0248E+05  0.000E+00  0.000E+00  0.000E+00  4.29078E+01  3.737E-01  2.000E+01  2.000E+04 -1.601E+00
   1   14   14     1    14    5.0248E+05 -3.2901E+04   5.3538E+05  0.000E+00  0.000E+00  0.000E+00  4.24453E+01  3.885E-01  2.000E+01  2.000E+04 -1.645E+00
   1   13   15     1    15    5.3538E+05 -3.5605E+04   5.7099E+05  0.000E+00  0.000E+00  0.000E+00  4.19832E+01  4.037E-01  2.000E+01  2.000E+04 -1.780E+00
   1   12   16     1    16    5.7099E+05 -4.2231E+04   6.1322E+05  0.000E+00  0.000E+00  0.000E+00  4.15228E+01  4.205E-01  2.000E+01  2.000E+04 -2.112E+00
   1   12   17     1    17    6.1322E+05 -3.2692E+04   6.4591E+05  0.000E+00  0.000E+00  0.000E+00  4.10613E+01  4.363E-01  2.000E+01  2.000E+04 -1.635E+00
   1   12   18     1    18    6.4591E+05 -3.0976E+04   6.7689E+05  0.000E+00  0.000E+00  0.000E+00  4.05971E+01  4.494E-01  2.000E+01  2.000E+04 -1.549E+00
   1   12   19     1    19    6.7689E+05 -3.4852E+04   7.1174E+05  0.000E+00  0.000E+00  0.000E+00  4.01331E+01  4.627E-01  2.000E+01  2.000E+04 -1.743E+00
   1   13   20     1    20    7.1174E+05 -2.4699E+04   7.3644E+05  0.000E+00  0.000E+00  0.000E+00  3.96676E+01  4.745E-01  2.000E+01  2.000E+04 -1.235E+00
   1   14   21     1    21    7.3644E+05 -1.7368E+04   7.5380E+05  0.000E+00  0.000E+00  0.000E+00  3.91986E+01  4.827E-01  2.000E+01  2.000E+04 -8.684E-01
   1   14   22     1    22    7.5380E+05 -8.9977E+02   7.5470E+05  0.000E+00  0.000E+00  0.000E+00  3.87249E+01  4.862E-01  2.000E+01  2.000E+04 -4.499E-02
   1    9   30     2     1    5.0000E+04 -2.3938E+04   7.3938E+04  0.000E+00  0.000E+00  0.000E+00  4.02568E+01  1.318E-01  2.000E+01  2.000E+04 -1.197E+00
   1    9   29     2     2    7.3938E+04 -2.5852E+04   9.9790E+04  0.000E+00  0.000E+00  0.000E+00  4.00364E+01  1.614E-01  2.000E+01  2.000E+04 -1.293E+00
   1    9   28     2     3    9.9790E+04 -2.8737E+04   1.2853E+05  0.000E+00  0.000E+00  0.000E+00  3.98151E+01  1.901E-01  2.000E+01  2.000E+04 -1.437E+00
   1    9   27     2     4    1.2853E+05 -3.9417E+04   1.6794E+05  0.000E+00  0.000E+00  0.000E+00  3.95974E+01  2.224E-01  2.000E+01  2.000E+04 -1.971E+00
   1   10   26     2     5    1.6794E+05 -2.8276E+04   1.9622E+05  0.000E+00  0.000E+00  0.000E+00  3.93766E+01  2.516E-01  2.000E+01  2.000E+04 -1.414E+00
   1   11   25     2     6    1.9622E+05 -2.2259E+04   2.1848E+05  0.000E+00  0.000E+00  0.000E+00  3.91470E+01  2.720E-01  2.000E+01  2.000E+04 -1.113E+00
   1   12   24     2     7    2.1848E+05 -1.6896E+04   2.3537E+05  0.000E+00  0.000E+00  0.000E+00  3.89121E+01  2.871E-01  2.000E+01  2.000E+04 -8.448E-01
   1   13   23     2     8    2.3537E+05 -1.2160E+04   2.4754E+05  0.000E+00  0.000E+00  0.000E+00  3.86730E+01  2.980E-01  2.000E+01  2.000E+04 -6.080E-01
   1   14   22     2     9    2.4754E+05 -6.7968E+03   2.5433E+05  0.000E+00  0.000E+00  0.000E+00  3.84300E+01  3.050E-01  2.000E+01  2.000E+04 -3.398E-01
   1   14   22     3     1    1.0090E+06 -1.4635E+04   1.0237E+06  0.000E+00  0.000E+00  0.000E+00  3.80381E+01  4.825E-01  2.000E+01  2.000E+04 -7.318E-01
   1   15   23     3     2    1.0237E+06 -2.1551E+04   1.0452E+06  0.000E+00  0.000E+00  0.000E+00  3.71543E+01  4.877E-01  2.000E+01  2.000E+04 -1.078E+00
   1   15   24     3     3    1.0452E+06 -1.8361E+04   1.0636E+06  0.000E+00  0.000E+00  0.000E+00  3.62711E+01  4.933E-01  2.000E+01  2.000E+04 -9.181E-01
   1   15   25     3     4    1.0636E+06 -1.8283E+04   1.0819E+06  0.000E+00  0.000E+00  0.000E+00  3.53873E+01  4.984E-01  2.000E+01  2.000E+04 -9.141E-01
   1   15   26     3     5    1.0819E+06 -2.1195E+04   1.1031E+06  0.000E+00  0.000E+00  0.000E+00  3.45039E+01  5.039E-01  2.000E+01  2.000E+04 -1.060E+00
   1   16   27     3     6    1.1031E+06 -2.8138E+04   1.1312E+06  0.000E+00  0.000E+00  0.000E+00  3.36218E+01  5.107E-01  2.000E+01  2.000E+04 -1.407E+00
   1   17   28     3     7    1.1312E+06 -3.5241E+04   1.1664E+06  0.000E+00  0.000E+00  0.000E+00  3.27416E+01  5.193E-01  2.000E+01  2.000E+04 -1.762E+00
   1   18   29     3     8    1.1664E+06 -4.6353E+04   1.2128E+06  0.000E+00  0.000E+00  0.000E+00  3.18637E+01  5.303E-01  2.000E+01  2.000E+04 -2.318E+00
   1   18   30     3     9    1.2128E+06 -4.3110E+04   1.2559E+06  0.000E+00  0.000E+00  0.000E+00  3.09866E+01  5.422E-01  2.000E+01  2.000E+04 -2.155E+00



1
              HEAD IN LAYER   1 AT END OF TIME STEP   1 IN STRESS PERIOD    5
  ---------------------------------------------------------------------------

          1      2      3      4      5      6      7      8      9     10
         11     12     13     14     15     16     17     18     19     20
         21     22     23     24     25     26     27     28     29     30
 .........................................................................
   1  ****** ****** ****** ****** ****** ****** ****** ****** ****** ******
      ****** ****** ****** ****** ****** ****** ****** ****** ****** ******
      ****** ****** ****** ****** ****** ****** ****** ****** ****** ******
   2  ****** ****** ****** ****** ****** ****** ****** ****** ****** ******
      ****** ****** ****** ****** ****** ****** ****** ****** ****** ******
      ****** ****** ****** ****** ****** ****** ****** ****** ****** ******
   3  ****** ****** ****** ****** ****** ****** ****** ****** ****** ******
      ****** ****** ****** ****** ****** ****** ****** ****** ****** ******
      ****** ****** ****** ****** ****** ****** ****** ****** ****** ******
   4  ****** ****** ****** ****** ****** ****** ****** ****** ****** ******
      ****** ****** ****** ****** ****** ****** ****** ****** ****** ******
      ****** ****** ****** ****** ****** ****** ****** ****** ****** ******
   5  ****** ****** ****** ****** ****** ****** ****** ****** ****** ******
      ****** ****** ****** ****** ****** ****** ****** ****** ****** ******
      ****** ****** ****** ****** ****** ****** ****** ****** ****** ******
   6  ****** ****** ****** ****** ****** ****** ****** ****** ****** ******
      ****** ****** ****** ****** ****** ****** ****** ****** ****** ******
      ****** ****** ****** ****** ****** ****** ****** ****** ****** ******
   7  ****** ****** ****** ****** ****** ****** ****** ****** ****** ******
      ****** ****** ****** ****** ****** ****** ****** ****** ****** ******
      ****** ****** ****** ****** ****** ****** ****** ****** ****** ******
   8  ****** ****** ****** ****** ****** ****** ****** ****** ****** ******
      ****** ****** ****** ****** ****** ****** ****** ****** ****** ******
      ****** ****** ****** ****** ****** ****** ****** ****** ****** ******
   9  ****** ****** ****** ****** ****** ****** ****** ****** ****** ******
      ****** ****** ****** ****** ****** ****** ****** ****** ****** ******
      ****** ****** ****** ****** ****** ****** ****** ****** ****** ******
  10  ****** ****** ****** ****** ****** ****** ****** ****** ****** ******
      ****** ****** ****** ****** ****** ****** ****** ****** ****** ******
      ****** ****** ****** ****** ****** ****** ****** ****** ****** ******
  11  ****** ****** ****** ****** ****** ****** ****** ****** ****** ******
      ****** ****** ****** ****** ****** ****** ****** ****** ****** ******
      ****** ****** ****** ****** ****** ****** ****** ****** ****** ******
  12  ****** ****** ****** ****** ****** ****** ****** ****** ****** ******
      ****** ****** ****** ****** ****** ****** ****** ****** ****** ******
      ****** ****** ****** ****** ****** ****** ****** ****** ****** ******
  13  ****** ****** ****** ****** ****** ****** ****** ****** ****** ******
      ****** ****** ****** ****** ****** ****** ****** ****** ****** ******
      ****** ****** ****** ****** ****** ****** ****** ****** ****** ******
  14  ****** ****** ****** ****** ****** ****** ****** ****** ****** ******
      ****** ****** ****** ****** ****** ****** ****** ****** ****** ******
      ****** ****** ****** ****** ****** ****** ****** ****** ****** ******
  15  ****** ****** ****** ****** ****** ****** ****** ****** ****** ******
      ****** ****** ****** ****** ****** ****** ****** ****** ****** ******
      ****** ****** ****** ****** ****** ****** ****** ****** ****** ******
  16  ****** ****** ****** ****** ****** ****** ****** ****** ****** ******
      ****** ****** ****** ****** ****** ****** ****** ****** ****** ******
      ****** ****** ****** ****** ****** ****** ****** ****** ****** ******
  17  ****** ****** ****** ****** ****** ****** ****** ****** ****** ******
      ****** ****** ****** ****** ****** ****** ****** ****** ****** ******
      ****** ****** ****** ****** ****** ****** ****** ****** ****** ******
  18  ****** ****** ****** ****** ****** ****** ****** ****** ****** ******
      ****** ****** ****** ****** ****** ****** ****** ****** ****** ******
      ****** ****** ****** ****** ****** ****** ****** ****** ****** ******
  19  ****** ****** ****** ****** ****** ****** ****** ****** ****** ******
      ****** ****** ****** ****** ****** ****** ****** ****** ****** ******
      ****** ****** ****** ****** ****** ****** ****** ****** ****** ******
  20  ****** ****** ****** ****** ****** ****** ****** ****** ****** ******
      ****** ****** ****** ****** ****** ****** ****** ****** ****** ******
      ****** ****** ****** ****** ****** ****** ****** ****** ****** ******
  21  ****** ****** ****** ****** ****** ****** ****** ****** ****** ******
      ****** ****** ****** ****** ****** ****** ****** ****** ****** ******
      ****** ****** ****** ****** ****** ****** ****** ****** ****** ******
  22  ****** ****** ****** ****** ****** ****** ****** ****** ****** ******
      ****** ****** ****** ****** ****** ****** ****** ****** ****** ******
      ****** ****** ****** ****** ****** ****** ****** ****** ****** ******
  23  ****** ****** ****** ****** ****** ****** ****** ****** ****** ******
      ****** ****** ****** ****** ****** ****** ****** ****** ****** ******
      ****** ****** ****** ****** ****** ****** ****** ****** ****** ******
  24  ****** ****** ****** ****** ****** ****** ****** ****** ****** ******
      ****** ****** ****** ****** ****** ****** ****** ****** ****** ******
      ****** ****** ****** ****** ****** ****** ****** ****** ****** ******
  25  ****** ****** ****** ****** ****** ****** ****** ****** ****** ******
      ****** ****** ****** ****** ****** ****** ****** ****** ****** ******
      ****** ****** ****** ****** ****** ****** ****** ****** ****** ******

 HEAD WILL BE SAVED ON UNIT   51 AT END OF TIME STEP    1, STRESS PERIOD    5
1
  VOLUMETRIC BUDGET FOR ENTIRE MODEL AT END OF TIME STEP    1, STRESS PERIOD   5
  ------------------------------------------------------------------------------

     CUMULATIVE VOLUMES      L**3       RATES FOR THIS TIME STEP      L**3/T
     ------------------                 ------------------------

           IN:                                      IN:
           ---                                      ---
             STORAGE =    20489334.0989               STORAGE =         586.0332
       CONSTANT HEAD =   550807993.6863         CONSTANT HEAD =     1222154.0069
               WELLS =           0.0000                 WELLS =           0.0000
            RECHARGE =    10074000.0000              RECHARGE =       13800.0000
      STREAM LEAKAGE =           0.0000        STREAM LEAKAGE =           0.0000

            TOTAL IN =   581371327.7853              TOTAL IN =     1236540.0401

          OUT:                                     OUT:
          ----                                     ----
             STORAGE =      103321.4918               STORAGE =           0.0000
       CONSTANT HEAD =           0.0000         CONSTANT HEAD =           0.0000
               WELLS =    59701030.1544                 WELLS =      130636.8275
            RECHARGE =           0.0000              RECHARGE =           0.0000
      STREAM LEAKAGE =   521566983.5233        STREAM LEAKAGE =     1105903.2327

           TOTAL OUT =   581371335.1695             TOTAL OUT =     1236540.0602

            IN - OUT =          -7.3843              IN - OUT =      -2.0101E-02

 PERCENT DISCREPANCY =          -0.00     PERCENT DISCREPANCY =          -0.00






         TIME SUMMARY AT END OF TIME STEP    1 IN STRESS PERIOD    5
                    SECONDS     MINUTES      HOURS       DAYS        YEARS
                    -----------------------------------------------------------
   TIME STEP LENGTH 7.94880E+06 1.32480E+05  2208.0      92.000     0.25188    
 STRESS PERIOD TIME 7.94880E+06 1.32480E+05  2208.0      92.000     0.25188    
         TOTAL TIME 3.94848E+07 6.58080E+05  10968.      457.00      1.2512    
1
1
                            STRESS PERIOD NO.    6, LENGTH =   91.00000    
                            -----------------------------------------------

                              NUMBER OF TIME STEPS =     1

                               MULTIPLIER FOR DELT =     1.500

                            INITIAL TIME STEP SIZE =   91.00000    

 WELL NO.  LAYER   ROW   COL   STRESS RATE         
 --------------------------------------------------
      1      1     19     16     -0.2814E+05
      2      1      7     26     -0.5000E+05
      3      1     22     20     -0.5250E+05

      3 WELLS

                 RECHARGE =  2.000000E-03

 REUSING STREAM SEGMENT DATA FROM LAST STRESS PERIOD
 
 SOLVING FOR HEAD 


     6 CALLS TO PCG ROUTINE FOR TIME STEP   1 IN STRESS PERIOD    6
    22 TOTAL ITERATIONS

 OUTPUT CONTROL FOR STRESS PERIOD    6   TIME STEP    1
    SAVE BUDGET
    SAVE HEAD FOR ALL LAYERS
    PRINT HEAD FOR ALL LAYERS
 UBDSV2 SAVING "STREAMFLOW OUT  " ON UNIT  50 AT TIME STEP  1, STRESS PERIOD   6



 STREAM LISTING     PERIOD      6   STEP        1

 LAYER ROW COL. STREAM  RCH.  FLOW INTO     FLOW TO   FLOW OUT OF   OVRLND.     DIRECT     STREAM       STREAM     STREAM     STREAM   STREAMBED  STREAMBED
                SEG.NO.  NO.  STRM. RCH.    AQUIFER    STRM. RCH.    RUNOFF     PRECIP       ET          HEAD       DEPTH      WIDTH   CONDCTNC.   GRADIENT

   1   13    1     1     1    1.0000E+05 -2.8304E+04   1.2830E+05  0.000E+00  0.000E+00  0.000E+00  4.84180E+01  1.566E-01  2.000E+01  2.000E+04 -1.415E+00
   1   13    2     1     2    1.2830E+05 -3.8139E+04   1.6644E+05  0.000E+00  0.000E+00  0.000E+00  4.79666E+01  1.825E-01  2.000E+01  2.000E+04 -1.907E+00
   1   14    3     1     3    1.6644E+05 -3.3580E+04   2.0002E+05  0.000E+00  0.000E+00  0.000E+00  4.75148E+01  2.080E-01  2.000E+01  2.000E+04 -1.679E+00
   1   15    4     1     4    2.0002E+05 -3.2759E+04   2.3278E+05  0.000E+00  0.000E+00  0.000E+00  4.70594E+01  2.299E-01  2.000E+01  2.000E+04 -1.638E+00
   1   16    5     1     5    2.3278E+05 -3.4152E+04   2.6693E+05  0.000E+00  0.000E+00  0.000E+00  4.66028E+01  2.506E-01  2.000E+01  2.000E+04 -1.708E+00
   1   16    6     1     6    2.6693E+05 -2.9794E+04   2.9673E+05  0.000E+00  0.000E+00  0.000E+00  4.61444E+01  2.694E-01  2.000E+01  2.000E+04 -1.490E+00
   1   16    7     1     7    2.9673E+05 -2.9546E+04   3.2627E+05  0.000E+00  0.000E+00  0.000E+00  4.56837E+01  2.860E-01  2.000E+01  2.000E+04 -1.477E+00
   1   16    8     1     8    3.2627E+05 -2.9628E+04   3.5590E+05  0.000E+00  0.000E+00  0.000E+00  4.52225E+01  3.020E-01  2.000E+01  2.000E+04 -1.481E+00
   1   16    9     1     9    3.5590E+05 -2.9552E+04   3.8545E+05  0.000E+00  0.000E+00  0.000E+00  4.47607E+01  3.175E-01  2.000E+01  2.000E+04 -1.478E+00
   1   16   10     1    10    3.8545E+05 -2.9329E+04   4.1478E+05  0.000E+00  0.000E+00  0.000E+00  4.42983E+01  3.324E-01  2.000E+01  2.000E+04 -1.466E+00
   1   16   11     1    11    4.1478E+05 -2.9486E+04   4.4427E+05  0.000E+00  0.000E+00  0.000E+00  4.38355E+01  3.468E-01  2.000E+01  2.000E+04 -1.474E+00
   1   16   12     1    12    4.4427E+05 -3.3885E+04   4.7815E+05  0.000E+00  0.000E+00  0.000E+00  4.33733E+01  3.620E-01  2.000E+01  2.000E+04 -1.694E+00
   1   15   13     1    13    4.7815E+05 -3.2759E+04   5.1091E+05  0.000E+00  0.000E+00  0.000E+00  4.29115E+01  3.774E-01  2.000E+01  2.000E+04 -1.638E+00
   1   14   14     1    14    5.1091E+05 -3.3668E+04   5.4458E+05  0.000E+00  0.000E+00  0.000E+00  4.24493E+01  3.924E-01  2.000E+01  2.000E+04 -1.683E+00
   1   13   15     1    15    5.4458E+05 -3.6365E+04   5.8095E+05  0.000E+00  0.000E+00  0.000E+00  4.19874E+01  4.079E-01  2.000E+01  2.000E+04 -1.818E+00
   1   12   16     1    16    5.8095E+05 -4.2966E+04   6.2391E+05  0.000E+00  0.000E+00  0.000E+00  4.15272E+01  4.249E-01  2.000E+01  2.000E+04 -2.148E+00
   1   12   17     1    17    6.2391E+05 -3.3283E+04   6.5719E+05  0.000E+00  0.000E+00  0.000E+00  4.10658E+01  4.408E-01  2.000E+01  2.000E+04 -1.664E+00
   1   12   18     1    18    6.5719E+05 -3.1541E+04   6.8873E+05  0.000E+00  0.000E+00  0.000E+00  4.06018E+01  4.541E-01  2.000E+01  2.000E+04 -1.577E+00
   1   12   19     1    19    6.8873E+05 -3.5469E+04   7.2420E+05  0.000E+00  0.000E+00  0.000E+00  4.01380E+01  4.675E-01  2.000E+01  2.000E+04 -1.773E+00
   1   13   20     1    20    7.2420E+05 -2.5275E+04   7.4948E+05  0.000E+00  0.000E+00  0.000E+00  3.96726E+01  4.795E-01  2.000E+01  2.000E+04 -1.264E+00
   1   14   21     1    21    7.4948E+05 -1.7864E+04   7.6734E+05  0.000E+00  0.000E+00  0.000E+00  3.92037E+01  4.878E-01  2.000E+01  2.000E+04 -8.932E-01
   1   14   22     1    22    7.6734E+05 -1.0749E+03   7.6842E+05  0.000E+00  0.000E+00  0.000E+00  3.87301E+01  4.915E-01  2.000E+01  2.000E+04 -5.375E-02
   1    9   30     2     1    5.0000E+04 -2.4383E+04   7.4383E+04  0.000E+00  0.000E+00  0.000E+00  4.02571E+01  1.321E-01  2.000E+01  2.000E+04 -1.219E+00
   1    9   29     2     2    7.4383E+04 -2.6297E+04   1.0068E+05  0.000E+00  0.000E+00  0.000E+00  4.00371E+01  1.621E-01  2.000E+01  2.000E+04 -1.315E+00
   1    9   28     2     3    1.0068E+05 -2.9198E+04   1.2988E+05  0.000E+00  0.000E+00  0.000E+00  3.98163E+01  1.913E-01  2.000E+01  2.000E+04 -1.460E+00
   1    9   27     2     4    1.2988E+05 -3.9981E+04   1.6986E+05  0.000E+00  0.000E+00  0.000E+00  3.95989E+01  2.239E-01  2.000E+01  2.000E+04 -1.999E+00
   1   10   26     2     5    1.6986E+05 -2.8861E+04   1.9872E+05  0.000E+00  0.000E+00  0.000E+00  3.93784E+01  2.534E-01  2.000E+01  2.000E+04 -1.443E+00
   1   11   25     2     6    1.9872E+05 -2.2824E+04   2.2154E+05  0.000E+00  0.000E+00  0.000E+00  3.91492E+01  2.742E-01  2.000E+01  2.000E+04 -1.141E+00
   1   12   24     2     7    2.2154E+05 -1.7401E+04   2.3895E+05  0.000E+00  0.000E+00  0.000E+00  3.89147E+01  2.897E-01  2.000E+01  2.000E+04 -8.701E-01
   1   13   23     2     8    2.3895E+05 -1.2571E+04   2.5152E+05  0.000E+00  0.000E+00  0.000E+00  3.86758E+01  3.008E-01  2.000E+01  2.000E+04 -6.285E-01
   1   14   22     2     9    2.5152E+05 -7.0175E+03   2.5853E+05  0.000E+00  0.000E+00  0.000E+00  3.84330E+01  3.080E-01  2.000E+01  2.000E+04 -3.509E-01
   1   14   22     3     1    1.0270E+06 -1.4813E+04   1.0418E+06  0.000E+00  0.000E+00  0.000E+00  3.80432E+01  4.876E-01  2.000E+01  2.000E+04 -7.407E-01
   1   15   23     3     2    1.0418E+06 -2.2012E+04   1.0638E+06  0.000E+00  0.000E+00  0.000E+00  3.71595E+01  4.928E-01  2.000E+01  2.000E+04 -1.101E+00
   1   15   24     3     3    1.0638E+06 -1.8743E+04   1.0825E+06  0.000E+00  0.000E+00  0.000E+00  3.62763E+01  4.985E-01  2.000E+01  2.000E+04 -9.371E-01
   1   15   25     3     4    1.0825E+06 -1.8662E+04   1.1012E+06  0.000E+00  0.000E+00  0.000E+00  3.53926E+01  5.037E-01  2.000E+01  2.000E+04 -9.331E-01
   1   15   26     3     5    1.1012E+06 -2.1636E+04   1.1228E+06  0.000E+00  0.000E+00  0.000E+00  3.45093E+01  5.093E-01  2.000E+01  2.000E+04 -1.082E+00
   1   16   27     3     6    1.1228E+06 -2.8671E+04   1.1515E+06  0.000E+00  0.000E+00  0.000E+00  3.36273E+01  5.162E-01  2.000E+01  2.000E+04 -1.434E+00
   1   17   28     3     7    1.1515E+06 -3.5786E+04   1.1873E+06  0.000E+00  0.000E+00  0.000E+00  3.27471E+01  5.249E-01  2.000E+01  2.000E+04 -1.789E+00
   1   18   29     3     8    1.1873E+06 -4.6865E+04   1.2341E+06  0.000E+00  0.000E+00  0.000E+00  3.18693E+01  5.359E-01  2.000E+01  2.000E+04 -2.343E+00
   1   18   30     3     9    1.2341E+06 -4.3537E+04   1.2777E+06  0.000E+00  0.000E+00  0.000E+00  3.09923E+01  5.479E-01  2.000E+01  2.000E+04 -2.177E+00



1
              HEAD IN LAYER   1 AT END OF TIME STEP   1 IN STRESS PERIOD    6
  ---------------------------------------------------------------------------

          1      2      3      4      5      6      7      8      9     10
         11     12     13     14     15     16     17     18     19     20
         21     22     23     24     25     26     27     28     29     30
 .........................................................................
   1  ****** ****** ****** ****** ****** ****** ****** ****** ****** ******
      ****** ****** ****** ****** ****** ****** ****** ****** ****** ******
      ****** ****** ****** ****** ****** ****** ****** ****** ****** ******
   2  ****** ****** ****** ****** ****** ****** ****** ****** ****** ******
      ****** ****** ****** ****** ****** ****** ****** ****** ****** ******
      ****** ****** ****** ****** ****** ****** ****** ****** ****** ******
   3  ****** ****** ****** ****** ****** ****** ****** ****** ****** ******
      ****** ****** ****** ****** ****** ****** ****** ****** ****** ******
      ****** ****** ****** ****** ****** ****** ****** ****** ****** ******
   4  ****** ****** ****** ****** ****** ****** ****** ****** ****** ******
      ****** ****** ****** ****** ****** ****** ****** ****** ****** ******
      ****** ****** ****** ****** ****** ****** ****** ****** ****** ******
   5  ****** ****** ****** ****** ****** ****** ****** ****** ****** ******
      ****** ****** ****** ****** ****** ****** ****** ****** ****** ******
      ****** ****** ****** ****** ****** ****** ****** ****** ****** ******
   6  ****** ****** ****** ****** ****** ****** ****** ****** ****** ******
      ****** ****** ****** ****** ****** ****** ****** ****** ****** ******
      ****** ****** ****** ****** ****** ****** ****** ****** ****** ******
   7  ****** ****** ****** ****** ****** ****** ****** ****** ****** ******
      ****** ****** ****** ****** ****** ****** ****** ****** ****** ******
      ****** ****** ****** ****** ****** ****** ****** ****** ****** ******
   8  ****** ****** ****** ****** ****** ****** ****** ****** ****** ******
      ****** ****** ****** ****** ****** ****** ****** ****** ****** ******
      ****** ****** ****** ****** ****** ****** ****** ****** ****** ******
   9  ****** ****** ****** ****** ****** ****** ****** ****** ****** ******
      ****** ****** ****** ****** ****** ****** ****** ****** ****** ******
      ****** ****** ****** ****** ****** ****** ****** ****** ****** ******
  10  ****** ****** ****** ****** ****** ****** ****** ****** ****** ******
      ****** ****** ****** ****** ****** ****** ****** ****** ****** ******
      ****** ****** ****** ****** ****** ****** ****** ****** ****** ******
  11  ****** ****** ****** ****** ****** ****** ****** ****** ****** ******
      ****** ****** ****** ****** ****** ****** ****** ****** ****** ******
      ****** ****** ****** ****** ****** ****** ****** ****** ****** ******
  12  ****** ****** ****** ****** ****** ****** ****** ****** ****** ******
      ****** ****** ****** ****** ****** ****** ****** ****** ****** ******
      ****** ****** ****** ****** ****** ****** ****** ****** ****** ******
  13  ****** ****** ****** ****** ****** ****** ****** ****** ****** ******
      ****** ****** ****** ****** ****** ****** ****** ****** ****** ******
      ****** ****** ****** ****** ****** ****** ****** ****** ****** ******
  14  ****** ****** ****** ****** ****** ****** ****** ****** ****** ******
      ****** ****** ****** ****** ****** ****** ****** ****** ****** ******
      ****** ****** ****** ****** ****** ****** ****** ****** ****** ******
  15  ****** ****** ****** ****** ****** ****** ****** ****** ****** ******
      ****** ****** ****** ****** ****** ****** ****** ****** ****** ******
      ****** ****** ****** ****** ****** ****** ****** ****** ****** ******
  16  ****** ****** ****** ****** ****** ****** ****** ****** ****** ******
      ****** ****** ****** ****** ****** ****** ****** ****** ****** ******
      ****** ****** ****** ****** ****** ****** ****** ****** ****** ******
  17  ****** ****** ****** ****** ****** ****** ****** ****** ****** ******
      ****** ****** ****** ****** ****** ****** ****** ****** ****** ******
      ****** ****** ****** ****** ****** ****** ****** ****** ****** ******
  18  ****** ****** ****** ****** ****** ****** ****** ****** ****** ******
      ****** ****** ****** ****** ****** ****** ****** ****** ****** ******
      ****** ****** ****** ****** ****** ****** ****** ****** ****** ******
  19  ****** ****** ****** ****** ****** ****** ****** ****** ****** ******
      ****** ****** ****** ****** ****** ****** ****** ****** ****** ******
      ****** ****** ****** ****** ****** ****** ****** ****** ****** ******
  20  ****** ****** ****** ****** ****** ****** ****** ****** ****** ******
      ****** ****** ****** ****** ****** ****** ****** ****** ****** ******
      ****** ****** ****** ****** ****** ****** ****** ****** ****** ******
  21  ****** ****** ****** ****** ****** ****** ****** ****** ****** ******
      ****** ****** ****** ****** ****** ****** ****** ****** ****** ******
      ****** ****** ****** ****** ****** ****** ****** ****** ****** ******
  22  ****** ****** ****** ****** ****** ****** ****** ****** ****** ******
      ****** ****** ****** ****** ****** ****** ****** ****** ****** ******
      ****** ****** ****** ****** ****** ****** ****** ****** ****** ******
  23  ****** ****** ****** ****** ****** ****** ****** ****** ****** ******
      ****** ****** ****** ****** ****** ****** ****** ****** ****** ******
      ****** ****** ****** ****** ****** ****** ****** ****** ****** ******
  24  ****** ****** ****** ****** ****** ****** ****** ****** ****** ******
      ****** ****** ****** ****** ****** ****** ****** ****** ****** ******
      ****** ****** ****** ****** ****** ****** ****** ****** ****** ******
  25  ****** ****** ****** ****** ****** ****** ****** ****** ****** ******
      ****** ****** ****** ****** ****** ****** ****** ****** ****** ******
      ****** ****** ****** ****** ****** ****** ****** ****** ****** ******

 HEAD WILL BE SAVED ON UNIT   51 AT END OF TIME STEP    1, STRESS PERIOD    6
1
  VOLUMETRIC BUDGET FOR ENTIRE MODEL AT END OF TIME STEP    1, STRESS PERIOD   6
  ------------------------------------------------------------------------------

     CUMULATIVE VOLUMES      L**3       RATES FOR THIS TIME STEP      L**3/T
     ------------------                 ------------------------

           IN:                                      IN:
           ---                                      ---
             STORAGE =    20489334.0989               STORAGE =           0.0000
       CONSTANT HEAD =   660467657.4810         CONSTANT HEAD =     1205051.2505
               WELLS =           0.0000                 WELLS =           0.0000
            RECHARGE =    15097200.0000              RECHARGE =       55200.0000
      STREAM LEAKAGE =           0.0000        STREAM LEAKAGE =           0.0000

            TOTAL IN =   696054191.5799              TOTAL IN =     1260251.2505

          OUT:                                     OUT:
          ----                                     ----
             STORAGE =      279692.9000               STORAGE =        1938.1473
       CONSTANT HEAD =           0.0000         CONSTANT HEAD =           0.0000
               WELLS =    71588981.4543                 WELLS =      130636.8275
            RECHARGE =           0.0000              RECHARGE =           0.0000
      STREAM LEAKAGE =   624185521.4967        STREAM LEAKAGE =     1127676.2415

           TOTAL OUT =   696054195.8510             TOTAL OUT =     1260251.2163

            IN - OUT =          -4.2711              IN - OUT =       3.4211E-02

 PERCENT DISCREPANCY =          -0.00     PERCENT DISCREPANCY =           0.00






         TIME SUMMARY AT END OF TIME STEP    1 IN STRESS PERIOD    6
                    SECONDS     MINUTES      HOURS       DAYS        YEARS
                    -----------------------------------------------------------
   TIME STEP LENGTH 7.86240E+06 1.31040E+05  2184.0      91.000     0.24914    
 STRESS PERIOD TIME 7.86240E+06 1.31040E+05  2184.0      91.000     0.24914    
         TOTAL TIME 4.73472E+07 7.89120E+05  13152.      548.00      1.5003    
1
1
                            STRESS PERIOD NO.    7, LENGTH =   91.00000    
                            -----------------------------------------------

                              NUMBER OF TIME STEPS =     1

                               MULTIPLIER FOR DELT =     1.500

                            INITIAL TIME STEP SIZE =   91.00000    

 WELL NO.  LAYER   ROW   COL   STRESS RATE         
 --------------------------------------------------
      1      1     19     16     -0.2814E+05
      2      1      7     26      -5190.    
      3      1     22     20     -0.5000E+05

      3 WELLS

                 RECHARGE =   0.00000    

 REUSING STREAM SEGMENT DATA FROM LAST STRESS PERIOD
 
 SOLVING FOR HEAD 


     6 CALLS TO PCG ROUTINE FOR TIME STEP   1 IN STRESS PERIOD    7
    23 TOTAL ITERATIONS

 OUTPUT CONTROL FOR STRESS PERIOD    7   TIME STEP    1
    SAVE BUDGET
    SAVE HEAD FOR ALL LAYERS
    PRINT HEAD FOR ALL LAYERS
 UBDSV2 SAVING "STREAMFLOW OUT  " ON UNIT  50 AT TIME STEP  1, STRESS PERIOD   7



 STREAM LISTING     PERIOD      7   STEP        1

 LAYER ROW COL. STREAM  RCH.  FLOW INTO     FLOW TO   FLOW OUT OF   OVRLND.     DIRECT     STREAM       STREAM     STREAM     STREAM   STREAMBED  STREAMBED
                SEG.NO.  NO.  STRM. RCH.    AQUIFER    STRM. RCH.    RUNOFF     PRECIP       ET          HEAD       DEPTH      WIDTH   CONDCTNC.   GRADIENT

   1   13    1     1     1    1.0000E+05 -2.7470E+04   1.2747E+05  0.000E+00  0.000E+00  0.000E+00  4.84176E+01  1.563E-01  2.000E+01  2.000E+04 -1.373E+00
   1   13    2     1     2    1.2747E+05 -3.7145E+04   1.6462E+05  0.000E+00  0.000E+00  0.000E+00  4.79656E+01  1.816E-01  2.000E+01  2.000E+04 -1.857E+00
   1   14    3     1     3    1.6462E+05 -3.2604E+04   1.9722E+05  0.000E+00  0.000E+00  0.000E+00  4.75133E+01  2.064E-01  2.000E+01  2.000E+04 -1.630E+00
   1   15    4     1     4    1.9722E+05 -3.1818E+04   2.2904E+05  0.000E+00  0.000E+00  0.000E+00  4.70573E+01  2.278E-01  2.000E+01  2.000E+04 -1.591E+00
   1   16    5     1     5    2.2904E+05 -3.3300E+04   2.6234E+05  0.000E+00  0.000E+00  0.000E+00  4.66003E+01  2.481E-01  2.000E+01  2.000E+04 -1.665E+00
   1   16    6     1     6    2.6234E+05 -2.9057E+04   2.9139E+05  0.000E+00  0.000E+00  0.000E+00  4.61415E+01  2.665E-01  2.000E+01  2.000E+04 -1.453E+00
   1   16    7     1     7    2.9139E+05 -2.8820E+04   3.2021E+05  0.000E+00  0.000E+00  0.000E+00  4.56806E+01  2.829E-01  2.000E+01  2.000E+04 -1.441E+00
   1   16    8     1     8    3.2021E+05 -2.8904E+04   3.4912E+05  0.000E+00  0.000E+00  0.000E+00  4.52191E+01  2.986E-01  2.000E+01  2.000E+04 -1.445E+00
   1   16    9     1     9    3.4912E+05 -2.8832E+04   3.7795E+05  0.000E+00  0.000E+00  0.000E+00  4.47570E+01  3.138E-01  2.000E+01  2.000E+04 -1.442E+00
   1   16   10     1    10    3.7795E+05 -2.8617E+04   4.0657E+05  0.000E+00  0.000E+00  0.000E+00  4.42944E+01  3.284E-01  2.000E+01  2.000E+04 -1.431E+00
   1   16   11     1    11    4.0657E+05 -2.8771E+04   4.3534E+05  0.000E+00  0.000E+00  0.000E+00  4.38313E+01  3.427E-01  2.000E+01  2.000E+04 -1.439E+00
   1   16   12     1    12    4.3534E+05 -3.3065E+04   4.6840E+05  0.000E+00  0.000E+00  0.000E+00  4.33689E+01  3.575E-01  2.000E+01  2.000E+04 -1.653E+00
   1   15   13     1    13    4.6840E+05 -3.1870E+04   5.0027E+05  0.000E+00  0.000E+00  0.000E+00  4.29068E+01  3.727E-01  2.000E+01  2.000E+04 -1.594E+00
   1   14   14     1    14    5.0027E+05 -3.2776E+04   5.3305E+05  0.000E+00  0.000E+00  0.000E+00  4.24443E+01  3.875E-01  2.000E+01  2.000E+04 -1.639E+00
   1   13   15     1    15    5.3305E+05 -3.5530E+04   5.6858E+05  0.000E+00  0.000E+00  0.000E+00  4.19822E+01  4.026E-01  2.000E+01  2.000E+04 -1.776E+00
   1   12   16     1    16    5.6858E+05 -4.2275E+04   6.1085E+05  0.000E+00  0.000E+00  0.000E+00  4.15218E+01  4.195E-01  2.000E+01  2.000E+04 -2.114E+00
   1   12   17     1    17    6.1085E+05 -3.2809E+04   6.4366E+05  0.000E+00  0.000E+00  0.000E+00  4.10603E+01  4.353E-01  2.000E+01  2.000E+04 -1.640E+00
   1   12   18     1    18    6.4366E+05 -3.1202E+04   6.7487E+05  0.000E+00  0.000E+00  0.000E+00  4.05962E+01  4.485E-01  2.000E+01  2.000E+04 -1.560E+00
   1   12   19     1    19    6.7487E+05 -3.5316E+04   7.1018E+05  0.000E+00  0.000E+00  0.000E+00  4.01324E+01  4.619E-01  2.000E+01  2.000E+04 -1.766E+00
   1   13   20     1    20    7.1018E+05 -2.5020E+04   7.3520E+05  0.000E+00  0.000E+00  0.000E+00  3.96671E+01  4.739E-01  2.000E+01  2.000E+04 -1.251E+00
   1   14   21     1    21    7.3520E+05 -1.7512E+04   7.5271E+05  0.000E+00  0.000E+00  0.000E+00  3.91981E+01  4.822E-01  2.000E+01  2.000E+04 -8.756E-01
   1   14   22     1    22    7.5271E+05 -1.1169E+03   7.5383E+05  0.000E+00  0.000E+00  0.000E+00  3.87245E+01  4.858E-01  2.000E+01  2.000E+04 -5.585E-02
   1    9   30     2     1    5.0000E+04 -2.5972E+04   7.5972E+04  0.000E+00  0.000E+00  0.000E+00  4.02581E+01  1.331E-01  2.000E+01  2.000E+04 -1.299E+00
   1    9   29     2     2    7.5972E+04 -2.8376E+04   1.0435E+05  0.000E+00  0.000E+00  0.000E+00  4.00400E+01  1.650E-01  2.000E+01  2.000E+04 -1.419E+00
   1    9   28     2     3    1.0435E+05 -3.2495E+04   1.3684E+05  0.000E+00  0.000E+00  0.000E+00  3.98215E+01  1.965E-01  2.000E+01  2.000E+04 -1.625E+00
   1    9   27     2     4    1.3684E+05 -4.6166E+04   1.8301E+05  0.000E+00  0.000E+00  0.000E+00  3.96078E+01  2.328E-01  2.000E+01  2.000E+04 -2.308E+00
   1   10   26     2     5    1.8301E+05 -3.2454E+04   2.1546E+05  0.000E+00  0.000E+00  0.000E+00  3.93906E+01  2.656E-01  2.000E+01  2.000E+04 -1.623E+00
   1   11   25     2     6    2.1546E+05 -2.4371E+04   2.3983E+05  0.000E+00  0.000E+00  0.000E+00  3.91627E+01  2.877E-01  2.000E+01  2.000E+04 -1.219E+00
   1   12   24     2     7    2.3983E+05 -1.7935E+04   2.5777E+05  0.000E+00  0.000E+00  0.000E+00  3.89284E+01  3.034E-01  2.000E+01  2.000E+04 -8.968E-01
   1   13   23     2     8    2.5777E+05 -1.2590E+04   2.7036E+05  0.000E+00  0.000E+00  0.000E+00  3.86895E+01  3.145E-01  2.000E+01  2.000E+04 -6.295E-01
   1   14   22     2     9    2.7036E+05 -6.6802E+03   2.7704E+05  0.000E+00  0.000E+00  0.000E+00  3.84463E+01  3.213E-01  2.000E+01  2.000E+04 -3.340E-01
   1   14   22     3     1    1.0309E+06 -1.4721E+04   1.0456E+06  0.000E+00  0.000E+00  0.000E+00  3.80443E+01  4.887E-01  2.000E+01  2.000E+04 -7.360E-01
   1   15   23     3     2    1.0456E+06 -2.1548E+04   1.0671E+06  0.000E+00  0.000E+00  0.000E+00  3.71605E+01  4.938E-01  2.000E+01  2.000E+04 -1.077E+00
   1   15   24     3     3    1.0671E+06 -1.8384E+04   1.0855E+06  0.000E+00  0.000E+00  0.000E+00  3.62772E+01  4.994E-01  2.000E+01  2.000E+04 -9.192E-01
   1   15   25     3     4    1.0855E+06 -1.8327E+04   1.1038E+06  0.000E+00  0.000E+00  0.000E+00  3.53934E+01  5.045E-01  2.000E+01  2.000E+04 -9.164E-01
   1   15   26     3     5    1.1038E+06 -2.1276E+04   1.1251E+06  0.000E+00  0.000E+00  0.000E+00  3.45100E+01  5.100E-01  2.000E+01  2.000E+04 -1.064E+00
   1   16   27     3     6    1.1251E+06 -2.8135E+04   1.1533E+06  0.000E+00  0.000E+00  0.000E+00  3.36278E+01  5.167E-01  2.000E+01  2.000E+04 -1.407E+00
   1   17   28     3     7    1.1533E+06 -3.5187E+04   1.1884E+06  0.000E+00  0.000E+00  0.000E+00  3.27475E+01  5.253E-01  2.000E+01  2.000E+04 -1.759E+00
   1   18   29     3     8    1.1884E+06 -4.6262E+04   1.2347E+06  0.000E+00  0.000E+00  0.000E+00  3.18695E+01  5.362E-01  2.000E+01  2.000E+04 -2.313E+00
   1   18   30     3     9    1.2347E+06 -4.3039E+04   1.2777E+06  0.000E+00  0.000E+00  0.000E+00  3.09924E+01  5.480E-01  2.000E+01  2.000E+04 -2.152E+00



1
              HEAD IN LAYER   1 AT END OF TIME STEP   1 IN STRESS PERIOD    7
  ---------------------------------------------------------------------------

          1      2      3      4      5      6      7      8      9     10
         11     12     13     14     15     16     17     18     19     20
         21     22     23     24     25     26     27     28     29     30
 .........................................................................
   1  ****** ****** ****** ****** ****** ****** ****** ****** ****** ******
      ****** ****** ****** ****** ****** ****** ****** ****** ****** ******
      ****** ****** ****** ****** ****** ****** ****** ****** ****** ******
   2  ****** ****** ****** ****** ****** ****** ****** ****** ****** ******
      ****** ****** ****** ****** ****** ****** ****** ****** ****** ******
      ****** ****** ****** ****** ****** ****** ****** ****** ****** ******
   3  ****** ****** ****** ****** ****** ****** ****** ****** ****** ******
      ****** ****** ****** ****** ****** ****** ****** ****** ****** ******
      ****** ****** ****** ****** ****** ****** ****** ****** ****** ******
   4  ****** ****** ****** ****** ****** ****** ****** ****** ****** ******
      ****** ****** ****** ****** ****** ****** ****** ****** ****** ******
      ****** ****** ****** ****** ****** ****** ****** ****** ****** ******
   5  ****** ****** ****** ****** ****** ****** ****** ****** ****** ******
      ****** ****** ****** ****** ****** ****** ****** ****** ****** ******
      ****** ****** ****** ****** ****** ****** ****** ****** ****** ******
   6  ****** ****** ****** ****** ****** ****** ****** ****** ****** ******
      ****** ****** ****** ****** ****** ****** ****** ****** ****** ******
      ****** ****** ****** ****** ****** ****** ****** ****** ****** ******
   7  ****** ****** ****** ****** ****** ****** ****** ****** ****** ******
      ****** ****** ****** ****** ****** ****** ****** ****** ****** ******
      ****** ****** ****** ****** ****** ****** ****** ****** ****** ******
   8  ****** ****** ****** ****** ****** ****** ****** ****** ****** ******
      ****** ****** ****** ****** ****** ****** ****** ****** ****** ******
      ****** ****** ****** ****** ****** ****** ****** ****** ****** ******
   9  ****** ****** ****** ****** ****** ****** ****** ****** ****** ******
      ****** ****** ****** ****** ****** ****** ****** ****** ****** ******
      ****** ****** ****** ****** ****** ****** ****** ****** ****** ******
  10  ****** ****** ****** ****** ****** ****** ****** ****** ****** ******
      ****** ****** ****** ****** ****** ****** ****** ****** ****** ******
      ****** ****** ****** ****** ****** ****** ****** ****** ****** ******
  11  ****** ****** ****** ****** ****** ****** ****** ****** ****** ******
      ****** ****** ****** ****** ****** ****** ****** ****** ****** ******
      ****** ****** ****** ****** ****** ****** ****** ****** ****** ******
  12  ****** ****** ****** ****** ****** ****** ****** ****** ****** ******
      ****** ****** ****** ****** ****** ****** ****** ****** ****** ******
      ****** ****** ****** ****** ****** ****** ****** ****** ****** ******
  13  ****** ****** ****** ****** ****** ****** ****** ****** ****** ******
      ****** ****** ****** ****** ****** ****** ****** ****** ****** ******
      ****** ****** ****** ****** ****** ****** ****** ****** ****** ******
  14  ****** ****** ****** ****** ****** ****** ****** ****** ****** ******
      ****** ****** ****** ****** ****** ****** ****** ****** ****** ******
      ****** ****** ****** ****** ****** ****** ****** ****** ****** ******
  15  ****** ****** ****** ****** ****** ****** ****** ****** ****** ******
      ****** ****** ****** ****** ****** ****** ****** ****** ****** ******
      ****** ****** ****** ****** ****** ****** ****** ****** ****** ******
  16  ****** ****** ****** ****** ****** ****** ****** ****** ****** ******
      ****** ****** ****** ****** ****** ****** ****** ****** ****** ******
      ****** ****** ****** ****** ****** ****** ****** ****** ****** ******
  17  ****** ****** ****** ****** ****** ****** ****** ****** ****** ******
      ****** ****** ****** ****** ****** ****** ****** ****** ****** ******
      ****** ****** ****** ****** ****** ****** ****** ****** ****** ******
  18  ****** ****** ****** ****** ****** ****** ****** ****** ****** ******
      ****** ****** ****** ****** ****** ****** ****** ****** ****** ******
      ****** ****** ****** ****** ****** ****** ****** ****** ****** ******
  19  ****** ****** ****** ****** ****** ****** ****** ****** ****** ******
      ****** ****** ****** ****** ****** ****** ****** ****** ****** ******
      ****** ****** ****** ****** ****** ****** ****** ****** ****** ******
  20  ****** ****** ****** ****** ****** ****** ****** ****** ****** ******
      ****** ****** ****** ****** ****** ****** ****** ****** ****** ******
      ****** ****** ****** ****** ****** ****** ****** ****** ****** ******
  21  ****** ****** ****** ****** ****** ****** ****** ****** ****** ******
      ****** ****** ****** ****** ****** ****** ****** ****** ****** ******
      ****** ****** ****** ****** ****** ****** ****** ****** ****** ******
  22  ****** ****** ****** ****** ****** ****** ****** ****** ****** ******
      ****** ****** ****** ****** ****** ****** ****** ****** ****** ******
      ****** ****** ****** ****** ****** ****** ****** ****** ****** ******
  23  ****** ****** ****** ****** ****** ****** ****** ****** ****** ******
      ****** ****** ****** ****** ****** ****** ****** ****** ****** ******
      ****** ****** ****** ****** ****** ****** ****** ****** ****** ******
  24  ****** ****** ****** ****** ****** ****** ****** ****** ****** ******
      ****** ****** ****** ****** ****** ****** ****** ****** ****** ******
      ****** ****** ****** ****** ****** ****** ****** ****** ****** ******
  25  ****** ****** ****** ****** ****** ****** ****** ****** ****** ******
      ****** ****** ****** ****** ****** ****** ****** ****** ****** ******
      ****** ****** ****** ****** ****** ****** ****** ****** ****** ******

 HEAD WILL BE SAVED ON UNIT   51 AT END OF TIME STEP    1, STRESS PERIOD    7
1
  VOLUMETRIC BUDGET FOR ENTIRE MODEL AT END OF TIME STEP    1, STRESS PERIOD   7
  ------------------------------------------------------------------------------

     CUMULATIVE VOLUMES      L**3       RATES FOR THIS TIME STEP      L**3/T
     ------------------                 ------------------------

           IN:                                      IN:
           ---                                      ---
             STORAGE =    20650003.3731               STORAGE =        1765.5964
       CONSTANT HEAD =   770644897.2390         CONSTANT HEAD =     1210738.8984
               WELLS =           0.0000                 WELLS =           0.0000
            RECHARGE =    15097200.0000              RECHARGE =           0.0000
      STREAM LEAKAGE =           0.0000        STREAM LEAKAGE =           0.0000

            TOTAL IN =   806392100.6121              TOTAL IN =     1212504.4949

          OUT:                                     OUT:
          ----                                     ----
             STORAGE =      410003.3054               STORAGE =        1431.9825
       CONSTANT HEAD =           0.0000         CONSTANT HEAD =           0.0000
               WELLS =    79171640.8079                 WELLS =       83325.9270
            RECHARGE =           0.0000              RECHARGE =           0.0000
      STREAM LEAKAGE =   726810462.9592        STREAM LEAKAGE =     1127746.6095

           TOTAL OUT =   806392107.0725             TOTAL OUT =     1212504.5189

            IN - OUT =          -6.4604              IN - OUT =      -2.4058E-02

 PERCENT DISCREPANCY =          -0.00     PERCENT DISCREPANCY =          -0.00






         TIME SUMMARY AT END OF TIME STEP    1 IN STRESS PERIOD    7
                    SECONDS     MINUTES      HOURS       DAYS        YEARS
                    -----------------------------------------------------------
   TIME STEP LENGTH 7.86240E+06 1.31040E+05  2184.0      91.000     0.24914    
 STRESS PERIOD TIME 7.86240E+06 1.31040E+05  2184.0      91.000     0.24914    
         TOTAL TIME 5.52096E+07 9.20160E+05  15336.      639.00      1.7495    
1
1
                            STRESS PERIOD NO.    8, LENGTH =   91.00000    
                            -----------------------------------------------

                              NUMBER OF TIME STEPS =     1

                               MULTIPLIER FOR DELT =     1.500

                            INITIAL TIME STEP SIZE =   91.00000    

 WELL NO.  LAYER   ROW   COL   STRESS RATE         
 --------------------------------------------------
      1      1     19     16     -0.2814E+05
      2      1      7     26      -5190.    
      3      1     22     20     -0.5000E+05

      3 WELLS

                 RECHARGE =  1.000000E-03

 REUSING STREAM SEGMENT DATA FROM LAST STRESS PERIOD
 
 SOLVING FOR HEAD 


     6 CALLS TO PCG ROUTINE FOR TIME STEP   1 IN STRESS PERIOD    8
    22 TOTAL ITERATIONS

 OUTPUT CONTROL FOR STRESS PERIOD    8   TIME STEP    1
    SAVE BUDGET
    SAVE HEAD FOR ALL LAYERS
    PRINT HEAD FOR ALL LAYERS
 UBDSV2 SAVING "STREAMFLOW OUT  " ON UNIT  50 AT TIME STEP  1, STRESS PERIOD   8



 STREAM LISTING     PERIOD      8   STEP        1

 LAYER ROW COL. STREAM  RCH.  FLOW INTO     FLOW TO   FLOW OUT OF   OVRLND.     DIRECT     STREAM       STREAM     STREAM     STREAM   STREAMBED  STREAMBED
                SEG.NO.  NO.  STRM. RCH.    AQUIFER    STRM. RCH.    RUNOFF     PRECIP       ET          HEAD       DEPTH      WIDTH   CONDCTNC.   GRADIENT

   1   13    1     1     1    1.0000E+05 -2.7865E+04   1.2786E+05  0.000E+00  0.000E+00  0.000E+00  4.84178E+01  1.564E-01  2.000E+01  2.000E+04 -1.393E+00
   1   13    2     1     2    1.2786E+05 -3.7616E+04   1.6548E+05  0.000E+00  0.000E+00  0.000E+00  4.79661E+01  1.820E-01  2.000E+01  2.000E+04 -1.881E+00
   1   14    3     1     3    1.6548E+05 -3.3068E+04   1.9855E+05  0.000E+00  0.000E+00  0.000E+00  4.75140E+01  2.072E-01  2.000E+01  2.000E+04 -1.653E+00
   1   15    4     1     4    1.9855E+05 -3.2268E+04   2.3082E+05  0.000E+00  0.000E+00  0.000E+00  4.70583E+01  2.288E-01  2.000E+01  2.000E+04 -1.613E+00
   1   16    5     1     5    2.3082E+05 -3.3708E+04   2.6452E+05  0.000E+00  0.000E+00  0.000E+00  4.66015E+01  2.493E-01  2.000E+01  2.000E+04 -1.685E+00
   1   16    6     1     6    2.6452E+05 -2.9411E+04   2.9394E+05  0.000E+00  0.000E+00  0.000E+00  4.61429E+01  2.679E-01  2.000E+01  2.000E+04 -1.471E+00
   1   16    7     1     7    2.9394E+05 -2.9171E+04   3.2311E+05  0.000E+00  0.000E+00  0.000E+00  4.56821E+01  2.844E-01  2.000E+01  2.000E+04 -1.459E+00
   1   16    8     1     8    3.2311E+05 -2.9256E+04   3.5236E+05  0.000E+00  0.000E+00  0.000E+00  4.52207E+01  3.002E-01  2.000E+01  2.000E+04 -1.463E+00
   1   16    9     1     9    3.5236E+05 -2.9185E+04   3.8155E+05  0.000E+00  0.000E+00  0.000E+00  4.47587E+01  3.156E-01  2.000E+01  2.000E+04 -1.459E+00
   1   16   10     1    10    3.8155E+05 -2.8969E+04   4.1052E+05  0.000E+00  0.000E+00  0.000E+00  4.42963E+01  3.303E-01  2.000E+01  2.000E+04 -1.448E+00
   1   16   11     1    11    4.1052E+05 -2.9130E+04   4.3965E+05  0.000E+00  0.000E+00  0.000E+00  4.38333E+01  3.447E-01  2.000E+01  2.000E+04 -1.456E+00
   1   16   12     1    12    4.3965E+05 -3.3484E+04   4.7313E+05  0.000E+00  0.000E+00  0.000E+00  4.33711E+01  3.597E-01  2.000E+01  2.000E+04 -1.674E+00
   1   15   13     1    13    4.7313E+05 -3.2332E+04   5.0546E+05  0.000E+00  0.000E+00  0.000E+00  4.29091E+01  3.750E-01  2.000E+01  2.000E+04 -1.617E+00
   1   14   14     1    14    5.0546E+05 -3.3255E+04   5.3872E+05  0.000E+00  0.000E+00  0.000E+00  4.24467E+01  3.899E-01  2.000E+01  2.000E+04 -1.663E+00
   1   13   15     1    15    5.3872E+05 -3.6009E+04   5.7473E+05  0.000E+00  0.000E+00  0.000E+00  4.19848E+01  4.052E-01  2.000E+01  2.000E+04 -1.800E+00
   1   12   16     1    16    5.7473E+05 -4.2747E+04   6.1747E+05  0.000E+00  0.000E+00  0.000E+00  4.15245E+01  4.222E-01  2.000E+01  2.000E+04 -2.137E+00
   1   12   17     1    17    6.1747E+05 -3.3197E+04   6.5067E+05  0.000E+00  0.000E+00  0.000E+00  4.10631E+01  4.381E-01  2.000E+01  2.000E+04 -1.660E+00
   1   12   18     1    18    6.5067E+05 -3.1581E+04   6.8225E+05  0.000E+00  0.000E+00  0.000E+00  4.05992E+01  4.514E-01  2.000E+01  2.000E+04 -1.579E+00
   1   12   19     1    19    6.8225E+05 -3.5744E+04   7.1800E+05  0.000E+00  0.000E+00  0.000E+00  4.01354E+01  4.650E-01  2.000E+01  2.000E+04 -1.787E+00
   1   13   20     1    20    7.1800E+05 -2.5413E+04   7.4341E+05  0.000E+00  0.000E+00  0.000E+00  3.96702E+01  4.771E-01  2.000E+01  2.000E+04 -1.271E+00
   1   14   21     1    21    7.4341E+05 -1.7840E+04   7.6125E+05  0.000E+00  0.000E+00  0.000E+00  3.92014E+01  4.855E-01  2.000E+01  2.000E+04 -8.920E-01
   1   14   22     1    22    7.6125E+05 -1.2393E+03   7.6249E+05  0.000E+00  0.000E+00  0.000E+00  3.87278E+01  4.892E-01  2.000E+01  2.000E+04 -6.196E-02
   1    9   30     2     1    5.0000E+04 -2.6342E+04   7.6342E+04  0.000E+00  0.000E+00  0.000E+00  4.02583E+01  1.333E-01  2.000E+01  2.000E+04 -1.317E+00
   1    9   29     2     2    7.6342E+04 -2.8752E+04   1.0509E+05  0.000E+00  0.000E+00  0.000E+00  4.00406E+01  1.656E-01  2.000E+01  2.000E+04 -1.438E+00
   1    9   28     2     3    1.0509E+05 -3.2898E+04   1.3799E+05  0.000E+00  0.000E+00  0.000E+00  3.98224E+01  1.974E-01  2.000E+01  2.000E+04 -1.645E+00
   1    9   27     2     4    1.3799E+05 -4.6684E+04   1.8468E+05  0.000E+00  0.000E+00  0.000E+00  3.96090E+01  2.340E-01  2.000E+01  2.000E+04 -2.334E+00
   1   10   26     2     5    1.8468E+05 -3.2946E+04   2.1762E+05  0.000E+00  0.000E+00  0.000E+00  3.93921E+01  2.671E-01  2.000E+01  2.000E+04 -1.647E+00
   1   11   25     2     6    2.1762E+05 -2.4815E+04   2.4244E+05  0.000E+00  0.000E+00  0.000E+00  3.91645E+01  2.895E-01  2.000E+01  2.000E+04 -1.241E+00
   1   12   24     2     7    2.4244E+05 -1.8313E+04   2.6075E+05  0.000E+00  0.000E+00  0.000E+00  3.89305E+01  3.055E-01  2.000E+01  2.000E+04 -9.156E-01
   1   13   23     2     8    2.6075E+05 -1.2882E+04   2.7363E+05  0.000E+00  0.000E+00  0.000E+00  3.86917E+01  3.167E-01  2.000E+01  2.000E+04 -6.441E-01
   1   14   22     2     9    2.7363E+05 -6.8219E+03   2.8045E+05  0.000E+00  0.000E+00  0.000E+00  3.84487E+01  3.237E-01  2.000E+01  2.000E+04 -3.411E-01
   1   14   22     3     1    1.0429E+06 -1.4841E+04   1.0578E+06  0.000E+00  0.000E+00  0.000E+00  3.80477E+01  4.922E-01  2.000E+01  2.000E+04 -7.420E-01
   1   15   23     3     2    1.0578E+06 -2.1846E+04   1.0796E+06  0.000E+00  0.000E+00  0.000E+00  3.71640E+01  4.973E-01  2.000E+01  2.000E+04 -1.092E+00
   1   15   24     3     3    1.0796E+06 -1.8633E+04   1.0983E+06  0.000E+00  0.000E+00  0.000E+00  3.62807E+01  5.029E-01  2.000E+01  2.000E+04 -9.317E-01
   1   15   25     3     4    1.0983E+06 -1.8577E+04   1.1168E+06  0.000E+00  0.000E+00  0.000E+00  3.53970E+01  5.081E-01  2.000E+01  2.000E+04 -9.289E-01
   1   15   26     3     5    1.1168E+06 -2.1570E+04   1.1384E+06  0.000E+00  0.000E+00  0.000E+00  3.45136E+01  5.136E-01  2.000E+01  2.000E+04 -1.078E+00
   1   16   27     3     6    1.1384E+06 -2.8484E+04   1.1669E+06  0.000E+00  0.000E+00  0.000E+00  3.36315E+01  5.204E-01  2.000E+01  2.000E+04 -1.424E+00
   1   17   28     3     7    1.1669E+06 -3.5541E+04   1.2024E+06  0.000E+00  0.000E+00  0.000E+00  3.27512E+01  5.290E-01  2.000E+01  2.000E+04 -1.777E+00
   1   18   29     3     8    1.2024E+06 -4.6592E+04   1.2490E+06  0.000E+00  0.000E+00  0.000E+00  3.18733E+01  5.399E-01  2.000E+01  2.000E+04 -2.330E+00
   1   18   30     3     9    1.2490E+06 -4.3315E+04   1.2923E+06  0.000E+00  0.000E+00  0.000E+00  3.09962E+01  5.517E-01  2.000E+01  2.000E+04 -2.166E+00



1
              HEAD IN LAYER   1 AT END OF TIME STEP   1 IN STRESS PERIOD    8
  ---------------------------------------------------------------------------

          1      2      3      4      5      6      7      8      9     10
         11     12     13     14     15     16     17     18     19     20
         21     22     23     24     25     26     27     28     29     30
 .........................................................................
   1  ****** ****** ****** ****** ****** ****** ****** ****** ****** ******
      ****** ****** ****** ****** ****** ****** ****** ****** ****** ******
      ****** ****** ****** ****** ****** ****** ****** ****** ****** ******
   2  ****** ****** ****** ****** ****** ****** ****** ****** ****** ******
      ****** ****** ****** ****** ****** ****** ****** ****** ****** ******
      ****** ****** ****** ****** ****** ****** ****** ****** ****** ******
   3  ****** ****** ****** ****** ****** ****** ****** ****** ****** ******
      ****** ****** ****** ****** ****** ****** ****** ****** ****** ******
      ****** ****** ****** ****** ****** ****** ****** ****** ****** ******
   4  ****** ****** ****** ****** ****** ****** ****** ****** ****** ******
      ****** ****** ****** ****** ****** ****** ****** ****** ****** ******
      ****** ****** ****** ****** ****** ****** ****** ****** ****** ******
   5  ****** ****** ****** ****** ****** ****** ****** ****** ****** ******
      ****** ****** ****** ****** ****** ****** ****** ****** ****** ******
      ****** ****** ****** ****** ****** ****** ****** ****** ****** ******
   6  ****** ****** ****** ****** ****** ****** ****** ****** ****** ******
      ****** ****** ****** ****** ****** ****** ****** ****** ****** ******
      ****** ****** ****** ****** ****** ****** ****** ****** ****** ******
   7  ****** ****** ****** ****** ****** ****** ****** ****** ****** ******
      ****** ****** ****** ****** ****** ****** ****** ****** ****** ******
      ****** ****** ****** ****** ****** ****** ****** ****** ****** ******
   8  ****** ****** ****** ****** ****** ****** ****** ****** ****** ******
      ****** ****** ****** ****** ****** ****** ****** ****** ****** ******
      ****** ****** ****** ****** ****** ****** ****** ****** ****** ******
   9  ****** ****** ****** ****** ****** ****** ****** ****** ****** ******
      ****** ****** ****** ****** ****** ****** ****** ****** ****** ******
      ****** ****** ****** ****** ****** ****** ****** ****** ****** ******
  10  ****** ****** ****** ****** ****** ****** ****** ****** ****** ******
      ****** ****** ****** ****** ****** ****** ****** ****** ****** ******
      ****** ****** ****** ****** ****** ****** ****** ****** ****** ******
  11  ****** ****** ****** ****** ****** ****** ****** ****** ****** ******
      ****** ****** ****** ****** ****** ****** ****** ****** ****** ******
      ****** ****** ****** ****** ****** ****** ****** ****** ****** ******
  12  ****** ****** ****** ****** ****** ****** ****** ****** ****** ******
      ****** ****** ****** ****** ****** ****** ****** ****** ****** ******
      ****** ****** ****** ****** ****** ****** ****** ****** ****** ******
  13  ****** ****** ****** ****** ****** ****** ****** ****** ****** ******
      ****** ****** ****** ****** ****** ****** ****** ****** ****** ******
      ****** ****** ****** ****** ****** ****** ****** ****** ****** ******
  14  ****** ****** ****** ****** ****** ****** ****** ****** ****** ******
      ****** ****** ****** ****** ****** ****** ****** ****** ****** ******
      ****** ****** ****** ****** ****** ****** ****** ****** ****** ******
  15  ****** ****** ****** ****** ****** ****** ****** ****** ****** ******
      ****** ****** ****** ****** ****** ****** ****** ****** ****** ******
      ****** ****** ****** ****** ****** ****** ****** ****** ****** ******
  16  ****** ****** ****** ****** ****** ****** ****** ****** ****** ******
      ****** ****** ****** ****** ****** ****** ****** ****** ****** ******
      ****** ****** ****** ****** ****** ****** ****** ****** ****** ******
  17  ****** ****** ****** ****** ****** ****** ****** ****** ****** ******
      ****** ****** ****** ****** ****** ****** ****** ****** ****** ******
      ****** ****** ****** ****** ****** ****** ****** ****** ****** ******
  18  ****** ****** ****** ****** ****** ****** ****** ****** ****** ******
      ****** ****** ****** ****** ****** ****** ****** ****** ****** ******
      ****** ****** ****** ****** ****** ****** ****** ****** ****** ******
  19  ****** ****** ****** ****** ****** ****** ****** ****** ****** ******
      ****** ****** ****** ****** ****** ****** ****** ****** ****** ******
      ****** ****** ****** ****** ****** ****** ****** ****** ****** ******
  20  ****** ****** ****** ****** ****** ****** ****** ****** ****** ******
      ****** ****** ****** ****** ****** ****** ****** ****** ****** ******
      ****** ****** ****** ****** ****** ****** ****** ****** ****** ******
  21  ****** ****** ****** ****** ****** ****** ****** ****** ****** ******
      ****** ****** ****** ****** ****** ****** ****** ****** ****** ******
      ****** ****** ****** ****** ****** ****** ****** ****** ****** ******
  22  ****** ****** ****** ****** ****** ****** ****** ****** ****** ******
      ****** ****** ****** ****** ****** ****** ****** ****** ****** ******
      ****** ****** ****** ****** ****** ****** ****** ****** ****** ******
  23  ****** ****** ****** ****** ****** ****** ****** ****** ****** ******
      ****** ****** ****** ****** ****** ****** ****** ****** ****** ******
      ****** ****** ****** ****** ****** ****** ****** ****** ****** ******
  24  ****** ****** ****** ****** ****** ****** ****** ****** ****** ******
      ****** ****** ****** ****** ****** ****** ****** ****** ****** ******
      ****** ****** ****** ****** ****** ****** ****** ****** ****** ******
  25  ****** ****** ****** ****** ****** ****** ****** ****** ****** ******
      ****** ****** ****** ****** ****** ****** ****** ****** ****** ******
      ****** ****** ****** ****** ****** ****** ****** ****** ****** ******

 HEAD WILL BE SAVED ON UNIT   51 AT END OF TIME STEP    1, STRESS PERIOD    8
1
  VOLUMETRIC BUDGET FOR ENTIRE MODEL AT END OF TIME STEP    1, STRESS PERIOD   8
  ------------------------------------------------------------------------------

     CUMULATIVE VOLUMES      L**3       RATES FOR THIS TIME STEP      L**3/T
     ------------------                 ------------------------

           IN:                                      IN:
           ---                                      ---
             STORAGE =    20650003.3731               STORAGE =           0.0000
       CONSTANT HEAD =   879784422.6208         CONSTANT HEAD =     1199335.4438
               WELLS =           0.0000                 WELLS =           0.0000
            RECHARGE =    17608800.0000              RECHARGE =       27600.0000
      STREAM LEAKAGE =           0.0000        STREAM LEAKAGE =           0.0000

            TOTAL IN =   918043225.9939              TOTAL IN =     1226935.4438

          OUT:                                     OUT:
          ----                                     ----
             STORAGE =      525502.6297               STORAGE =        1269.2233
       CONSTANT HEAD =           0.0000         CONSTANT HEAD =           0.0000
               WELLS =    86754300.1615                 WELLS =       83325.9270
            RECHARGE =           0.0000              RECHARGE =           0.0000
      STREAM LEAKAGE =   830763427.7174        STREAM LEAKAGE =     1142340.2721

           TOTAL OUT =   918043230.5085             TOTAL OUT =     1226935.4224

            IN - OUT =          -4.5147              IN - OUT =       2.1382E-02

 PERCENT DISCREPANCY =          -0.00     PERCENT DISCREPANCY =           0.00






         TIME SUMMARY AT END OF TIME STEP    1 IN STRESS PERIOD    8
                    SECONDS     MINUTES      HOURS       DAYS        YEARS
                    -----------------------------------------------------------
   TIME STEP LENGTH 7.86240E+06 1.31040E+05  2184.0      91.000     0.24914    
 STRESS PERIOD TIME 7.86240E+06 1.31040E+05  2184.0      91.000     0.24914    
         TOTAL TIME 6.30720E+07 1.05120E+06  17520.      730.00      1.9986    
1
1
                            STRESS PERIOD NO.    9, LENGTH =   92.00000    
                            -----------------------------------------------

                              NUMBER OF TIME STEPS =     1

                               MULTIPLIER FOR DELT =     1.500

                            INITIAL TIME STEP SIZE =   92.00000    

 WELL NO.  LAYER   ROW   COL   STRESS RATE         
 --------------------------------------------------
      1      1     19     16     -0.2814E+05
      2      1      7     26      -5190.    
      3      1     22     20     -0.5000E+05

      3 WELLS

                 RECHARGE =  5.000000E-04

 REUSING STREAM SEGMENT DATA FROM LAST STRESS PERIOD
 
 SOLVING FOR HEAD 


     5 CALLS TO PCG ROUTINE FOR TIME STEP   1 IN STRESS PERIOD    9
    20 TOTAL ITERATIONS

 OUTPUT CONTROL FOR STRESS PERIOD    9   TIME STEP    1
    SAVE BUDGET
    SAVE HEAD FOR ALL LAYERS
    PRINT HEAD FOR ALL LAYERS
 UBDSV2 SAVING "STREAMFLOW OUT  " ON UNIT  50 AT TIME STEP  1, STRESS PERIOD   9



 STREAM LISTING     PERIOD      9   STEP        1

 LAYER ROW COL. STREAM  RCH.  FLOW INTO     FLOW TO   FLOW OUT OF   OVRLND.     DIRECT     STREAM       STREAM     STREAM     STREAM   STREAMBED  STREAMBED
                SEG.NO.  NO.  STRM. RCH.    AQUIFER    STRM. RCH.    RUNOFF     PRECIP       ET          HEAD       DEPTH      WIDTH   CONDCTNC.   GRADIENT

   1   13    1     1     1    1.0000E+05 -2.7667E+04   1.2767E+05  0.000E+00  0.000E+00  0.000E+00  4.84177E+01  1.563E-01  2.000E+01  2.000E+04 -1.383E+00
   1   13    2     1     2    1.2767E+05 -3.7380E+04   1.6505E+05  0.000E+00  0.000E+00  0.000E+00  4.79659E+01  1.818E-01  2.000E+01  2.000E+04 -1.869E+00
   1   14    3     1     3    1.6505E+05 -3.2836E+04   1.9788E+05  0.000E+00  0.000E+00  0.000E+00  4.75136E+01  2.068E-01  2.000E+01  2.000E+04 -1.642E+00
   1   15    4     1     4    1.9788E+05 -3.2043E+04   2.2993E+05  0.000E+00  0.000E+00  0.000E+00  4.70578E+01  2.283E-01  2.000E+01  2.000E+04 -1.602E+00
   1   16    5     1     5    2.2993E+05 -3.3504E+04   2.6343E+05  0.000E+00  0.000E+00  0.000E+00  4.66009E+01  2.487E-01  2.000E+01  2.000E+04 -1.675E+00
   1   16    6     1     6    2.6343E+05 -2.9234E+04   2.9266E+05  0.000E+00  0.000E+00  0.000E+00  4.61422E+01  2.672E-01  2.000E+01  2.000E+04 -1.462E+00
   1   16    7     1     7    2.9266E+05 -2.8996E+04   3.2166E+05  0.000E+00  0.000E+00  0.000E+00  4.56814E+01  2.836E-01  2.000E+01  2.000E+04 -1.450E+00
   1   16    8     1     8    3.2166E+05 -2.9080E+04   3.5074E+05  0.000E+00  0.000E+00  0.000E+00  4.52199E+01  2.994E-01  2.000E+01  2.000E+04 -1.454E+00
   1   16    9     1     9    3.5074E+05 -2.9009E+04   3.7975E+05  0.000E+00  0.000E+00  0.000E+00  4.47579E+01  3.147E-01  2.000E+01  2.000E+04 -1.450E+00
   1   16   10     1    10    3.7975E+05 -2.8794E+04   4.0854E+05  0.000E+00  0.000E+00  0.000E+00  4.42953E+01  3.294E-01  2.000E+01  2.000E+04 -1.440E+00
   1   16   11     1    11    4.0854E+05 -2.8952E+04   4.3749E+05  0.000E+00  0.000E+00  0.000E+00  4.38323E+01  3.437E-01  2.000E+01  2.000E+04 -1.448E+00
   1   16   12     1    12    4.3749E+05 -3.3277E+04   4.7077E+05  0.000E+00  0.000E+00  0.000E+00  4.33700E+01  3.586E-01  2.000E+01  2.000E+04 -1.664E+00
   1   15   13     1    13    4.7077E+05 -3.2105E+04   5.0288E+05  0.000E+00  0.000E+00  0.000E+00  4.29080E+01  3.739E-01  2.000E+01  2.000E+04 -1.605E+00
   1   14   14     1    14    5.0288E+05 -3.3021E+04   5.3590E+05  0.000E+00  0.000E+00  0.000E+00  4.24455E+01  3.887E-01  2.000E+01  2.000E+04 -1.651E+00
   1   13   15     1    15    5.3590E+05 -3.5778E+04   5.7167E+05  0.000E+00  0.000E+00  0.000E+00  4.19835E+01  4.040E-01  2.000E+01  2.000E+04 -1.789E+00
   1   12   16     1    16    5.7167E+05 -4.2525E+04   6.1420E+05  0.000E+00  0.000E+00  0.000E+00  4.15231E+01  4.209E-01  2.000E+01  2.000E+04 -2.126E+00
   1   12   17     1    17    6.1420E+05 -3.3017E+04   6.4722E+05  0.000E+00  0.000E+00  0.000E+00  4.10617E+01  4.367E-01  2.000E+01  2.000E+04 -1.651E+00
   1   12   18     1    18    6.4722E+05 -3.1409E+04   6.7862E+05  0.000E+00  0.000E+00  0.000E+00  4.05977E+01  4.500E-01  2.000E+01  2.000E+04 -1.570E+00
   1   12   19     1    19    6.7862E+05 -3.5556E+04   7.1418E+05  0.000E+00  0.000E+00  0.000E+00  4.01339E+01  4.635E-01  2.000E+01  2.000E+04 -1.778E+00
   1   13   20     1    20    7.1418E+05 -2.5235E+04   7.3942E+05  0.000E+00  0.000E+00  0.000E+00  3.96687E+01  4.755E-01  2.000E+01  2.000E+04 -1.262E+00
   1   14   21     1    21    7.3942E+05 -1.7686E+04   7.5710E+05  0.000E+00  0.000E+00  0.000E+00  3.91998E+01  4.839E-01  2.000E+01  2.000E+04 -8.843E-01
   1   14   22     1    22    7.5710E+05 -1.1847E+03   7.5829E+05  0.000E+00  0.000E+00  0.000E+00  3.87262E+01  4.876E-01  2.000E+01  2.000E+04 -5.924E-02
   1    9   30     2     1    5.0000E+04 -2.6204E+04   7.6204E+04  0.000E+00  0.000E+00  0.000E+00  4.02582E+01  1.332E-01  2.000E+01  2.000E+04 -1.310E+00
   1    9   29     2     2    7.6204E+04 -2.8614E+04   1.0482E+05  0.000E+00  0.000E+00  0.000E+00  4.00404E+01  1.654E-01  2.000E+01  2.000E+04 -1.431E+00
   1    9   28     2     3    1.0482E+05 -3.2756E+04   1.3757E+05  0.000E+00  0.000E+00  0.000E+00  3.98221E+01  1.971E-01  2.000E+01  2.000E+04 -1.638E+00
   1    9   27     2     4    1.3757E+05 -4.6512E+04   1.8409E+05  0.000E+00  0.000E+00  0.000E+00  3.96086E+01  2.336E-01  2.000E+01  2.000E+04 -2.326E+00
   1   10   26     2     5    1.8409E+05 -3.2766E+04   2.1685E+05  0.000E+00  0.000E+00  0.000E+00  3.93916E+01  2.666E-01  2.000E+01  2.000E+04 -1.638E+00
   1   11   25     2     6    2.1685E+05 -2.4641E+04   2.4149E+05  0.000E+00  0.000E+00  0.000E+00  3.91638E+01  2.888E-01  2.000E+01  2.000E+04 -1.232E+00
   1   12   24     2     7    2.4149E+05 -1.8156E+04   2.5965E+05  0.000E+00  0.000E+00  0.000E+00  3.89297E+01  3.047E-01  2.000E+01  2.000E+04 -9.078E-01
   1   13   23     2     8    2.5965E+05 -1.2754E+04   2.7240E+05  0.000E+00  0.000E+00  0.000E+00  3.86909E+01  3.159E-01  2.000E+01  2.000E+04 -6.377E-01
   1   14   22     2     9    2.7240E+05 -6.7529E+03   2.7916E+05  0.000E+00  0.000E+00  0.000E+00  3.84478E+01  3.228E-01  2.000E+01  2.000E+04 -3.376E-01
   1   14   22     3     1    1.0374E+06 -1.4785E+04   1.0522E+06  0.000E+00  0.000E+00  0.000E+00  3.80462E+01  4.906E-01  2.000E+01  2.000E+04 -7.393E-01
   1   15   23     3     2    1.0522E+06 -2.1702E+04   1.0739E+06  0.000E+00  0.000E+00  0.000E+00  3.71624E+01  4.957E-01  2.000E+01  2.000E+04 -1.085E+00
   1   15   24     3     3    1.0739E+06 -1.8514E+04   1.0924E+06  0.000E+00  0.000E+00  0.000E+00  3.62791E+01  5.013E-01  2.000E+01  2.000E+04 -9.257E-01
   1   15   25     3     4    1.0924E+06 -1.8458E+04   1.1109E+06  0.000E+00  0.000E+00  0.000E+00  3.53953E+01  5.064E-01  2.000E+01  2.000E+04 -9.229E-01
   1   15   26     3     5    1.1109E+06 -2.1430E+04   1.1323E+06  0.000E+00  0.000E+00  0.000E+00  3.45119E+01  5.119E-01  2.000E+01  2.000E+04 -1.072E+00
   1   16   27     3     6    1.1323E+06 -2.8315E+04   1.1606E+06  0.000E+00  0.000E+00  0.000E+00  3.36298E+01  5.187E-01  2.000E+01  2.000E+04 -1.416E+00
   1   17   28     3     7    1.1606E+06 -3.5369E+04   1.1960E+06  0.000E+00  0.000E+00  0.000E+00  3.27495E+01  5.273E-01  2.000E+01  2.000E+04 -1.768E+00
   1   18   29     3     8    1.1960E+06 -4.6430E+04   1.2424E+06  0.000E+00  0.000E+00  0.000E+00  3.18715E+01  5.382E-01  2.000E+01  2.000E+04 -2.322E+00
   1   18   30     3     9    1.2424E+06 -4.3180E+04   1.2856E+06  0.000E+00  0.000E+00  0.000E+00  3.09944E+01  5.500E-01  2.000E+01  2.000E+04 -2.159E+00



1
              HEAD IN LAYER   1 AT END OF TIME STEP   1 IN STRESS PERIOD    9
  ---------------------------------------------------------------------------

          1      2      3      4      5      6      7      8      9     10
         11     12     13     14     15     16     17     18     19     20
         21     22     23     24     25     26     27     28     29     30
 .........................................................................
   1  ****** ****** ****** ****** ****** ****** ****** ****** ****** ******
      ****** ****** ****** ****** ****** ****** ****** ****** ****** ******
      ****** ****** ****** ****** ****** ****** ****** ****** ****** ******
   2  ****** ****** ****** ****** ****** ****** ****** ****** ****** ******
      ****** ****** ****** ****** ****** ****** ****** ****** ****** ******
      ****** ****** ****** ****** ****** ****** ****** ****** ****** ******
   3  ****** ****** ****** ****** ****** ****** ****** ****** ****** ******
      ****** ****** ****** ****** ****** ****** ****** ****** ****** ******
      ****** ****** ****** ****** ****** ****** ****** ****** ****** ******
   4  ****** ****** ****** ****** ****** ****** ****** ****** ****** ******
      ****** ****** ****** ****** ****** ****** ****** ****** ****** ******
      ****** ****** ****** ****** ****** ****** ****** ****** ****** ******
   5  ****** ****** ****** ****** ****** ****** ****** ****** ****** ******
      ****** ****** ****** ****** ****** ****** ****** ****** ****** ******
      ****** ****** ****** ****** ****** ****** ****** ****** ****** ******
   6  ****** ****** ****** ****** ****** ****** ****** ****** ****** ******
      ****** ****** ****** ****** ****** ****** ****** ****** ****** ******
      ****** ****** ****** ****** ****** ****** ****** ****** ****** ******
   7  ****** ****** ****** ****** ****** ****** ****** ****** ****** ******
      ****** ****** ****** ****** ****** ****** ****** ****** ****** ******
      ****** ****** ****** ****** ****** ****** ****** ****** ****** ******
   8  ****** ****** ****** ****** ****** ****** ****** ****** ****** ******
      ****** ****** ****** ****** ****** ****** ****** ****** ****** ******
      ****** ****** ****** ****** ****** ****** ****** ****** ****** ******
   9  ****** ****** ****** ****** ****** ****** ****** ****** ****** ******
      ****** ****** ****** ****** ****** ****** ****** ****** ****** ******
      ****** ****** ****** ****** ****** ****** ****** ****** ****** ******
  10  ****** ****** ****** ****** ****** ****** ****** ****** ****** ******
      ****** ****** ****** ****** ****** ****** ****** ****** ****** ******
      ****** ****** ****** ****** ****** ****** ****** ****** ****** ******
  11  ****** ****** ****** ****** ****** ****** ****** ****** ****** ******
      ****** ****** ****** ****** ****** ****** ****** ****** ****** ******
      ****** ****** ****** ****** ****** ****** ****** ****** ****** ******
  12  ****** ****** ****** ****** ****** ****** ****** ****** ****** ******
      ****** ****** ****** ****** ****** ****** ****** ****** ****** ******
      ****** ****** ****** ****** ****** ****** ****** ****** ****** ******
  13  ****** ****** ****** ****** ****** ****** ****** ****** ****** ******
      ****** ****** ****** ****** ****** ****** ****** ****** ****** ******
      ****** ****** ****** ****** ****** ****** ****** ****** ****** ******
  14  ****** ****** ****** ****** ****** ****** ****** ****** ****** ******
      ****** ****** ****** ****** ****** ****** ****** ****** ****** ******
      ****** ****** ****** ****** ****** ****** ****** ****** ****** ******
  15  ****** ****** ****** ****** ****** ****** ****** ****** ****** ******
      ****** ****** ****** ****** ****** ****** ****** ****** ****** ******
      ****** ****** ****** ****** ****** ****** ****** ****** ****** ******
  16  ****** ****** ****** ****** ****** ****** ****** ****** ****** ******
      ****** ****** ****** ****** ****** ****** ****** ****** ****** ******
      ****** ****** ****** ****** ****** ****** ****** ****** ****** ******
  17  ****** ****** ****** ****** ****** ****** ****** ****** ****** ******
      ****** ****** ****** ****** ****** ****** ****** ****** ****** ******
      ****** ****** ****** ****** ****** ****** ****** ****** ****** ******
  18  ****** ****** ****** ****** ****** ****** ****** ****** ****** ******
      ****** ****** ****** ****** ****** ****** ****** ****** ****** ******
      ****** ****** ****** ****** ****** ****** ****** ****** ****** ******
  19  ****** ****** ****** ****** ****** ****** ****** ****** ****** ******
      ****** ****** ****** ****** ****** ****** ****** ****** ****** ******
      ****** ****** ****** ****** ****** ****** ****** ****** ****** ******
  20  ****** ****** ****** ****** ****** ****** ****** ****** ****** ******
      ****** ****** ****** ****** ****** ****** ****** ****** ****** ******
      ****** ****** ****** ****** ****** ****** ****** ****** ****** ******
  21  ****** ****** ****** ****** ****** ****** ****** ****** ****** ******
      ****** ****** ****** ****** ****** ****** ****** ****** ****** ******
      ****** ****** ****** ****** ****** ****** ****** ****** ****** ******
  22  ****** ****** ****** ****** ****** ****** ****** ****** ****** ******
      ****** ****** ****** ****** ****** ****** ****** ****** ****** ******
      ****** ****** ****** ****** ****** ****** ****** ****** ****** ******
  23  ****** ****** ****** ****** ****** ****** ****** ****** ****** ******
      ****** ****** ****** ****** ****** ****** ****** ****** ****** ******
      ****** ****** ****** ****** ****** ****** ****** ****** ****** ******
  24  ****** ****** ****** ****** ****** ****** ****** ****** ****** ******
      ****** ****** ****** ****** ****** ****** ****** ****** ****** ******
      ****** ****** ****** ****** ****** ****** ****** ****** ****** ******
  25  ****** ****** ****** ****** ****** ****** ****** ****** ****** ******
      ****** ****** ****** ****** ****** ****** ****** ****** ****** ******
      ****** ****** ****** ****** ****** ****** ****** ****** ****** ******

 HEAD WILL BE SAVED ON UNIT   51 AT END OF TIME STEP    1, STRESS PERIOD    9
1
  VOLUMETRIC BUDGET FOR ENTIRE MODEL AT END OF TIME STEP    1, STRESS PERIOD   9
  ------------------------------------------------------------------------------

     CUMULATIVE VOLUMES      L**3       RATES FOR THIS TIME STEP      L**3/T
     ------------------                 ------------------------

           IN:                                      IN:
           ---                                      ---
             STORAGE =    20703258.8565               STORAGE =         578.8639
       CONSTANT HEAD =   990604994.5098         CONSTANT HEAD =     1204571.4336
               WELLS =           0.0000                 WELLS =           0.0000
            RECHARGE =    18878400.0000              RECHARGE =       13800.0000
      STREAM LEAKAGE =           0.0000        STREAM LEAKAGE =           0.0000

            TOTAL IN =  1030186653.3662              TOTAL IN =     1218950.2975

          OUT:                                     OUT:
          ----                                     ----
             STORAGE =      525502.6297               STORAGE =           0.0000
       CONSTANT HEAD =           0.0000         CONSTANT HEAD =           0.0000
               WELLS =    94420285.4420                 WELLS =       83325.9270
            RECHARGE =           0.0000              RECHARGE =           0.0000
      STREAM LEAKAGE =   935240871.6245        STREAM LEAKAGE =     1135624.3903

           TOTAL OUT =  1030186659.6962             TOTAL OUT =     1218950.3173

            IN - OUT =          -6.3299              IN - OUT =      -1.9731E-02

 PERCENT DISCREPANCY =          -0.00     PERCENT DISCREPANCY =          -0.00






         TIME SUMMARY AT END OF TIME STEP    1 IN STRESS PERIOD    9
                    SECONDS     MINUTES      HOURS       DAYS        YEARS
                    -----------------------------------------------------------
   TIME STEP LENGTH 7.94880E+06 1.32480E+05  2208.0      92.000     0.25188    
 STRESS PERIOD TIME 7.94880E+06 1.32480E+05  2208.0      92.000     0.25188    
         TOTAL TIME 7.10208E+07 1.18368E+06  19728.      822.00      2.2505    
1
1
                            STRESS PERIOD NO.   10, LENGTH =   91.00000    
                            -----------------------------------------------

                              NUMBER OF TIME STEPS =     1

                               MULTIPLIER FOR DELT =     1.500

                            INITIAL TIME STEP SIZE =   91.00000    

 WELL NO.  LAYER   ROW   COL   STRESS RATE         
 --------------------------------------------------
      1      1     19     16     -0.2814E+05
      2      1      7     26      -5190.    
      3      1     22     20     -0.5000E+05

      3 WELLS

                 RECHARGE =  2.000000E-03

 REUSING STREAM SEGMENT DATA FROM LAST STRESS PERIOD
 
 SOLVING FOR HEAD 


     6 CALLS TO PCG ROUTINE FOR TIME STEP   1 IN STRESS PERIOD   10
    22 TOTAL ITERATIONS

 OUTPUT CONTROL FOR STRESS PERIOD   10   TIME STEP    1
    SAVE BUDGET
    SAVE HEAD FOR ALL LAYERS
    PRINT HEAD FOR ALL LAYERS
 UBDSV2 SAVING "STREAMFLOW OUT  " ON UNIT  50 AT TIME STEP  1, STRESS PERIOD  10



 STREAM LISTING     PERIOD     10   STEP        1

 LAYER ROW COL. STREAM  RCH.  FLOW INTO     FLOW TO   FLOW OUT OF   OVRLND.     DIRECT     STREAM       STREAM     STREAM     STREAM   STREAMBED  STREAMBED
                SEG.NO.  NO.  STRM. RCH.    AQUIFER    STRM. RCH.    RUNOFF     PRECIP       ET          HEAD       DEPTH      WIDTH   CONDCTNC.   GRADIENT

   1   13    1     1     1    1.0000E+05 -2.8319E+04   1.2832E+05  0.000E+00  0.000E+00  0.000E+00  4.84180E+01  1.566E-01  2.000E+01  2.000E+04 -1.416E+00
   1   13    2     1     2    1.2832E+05 -3.8160E+04   1.6648E+05  0.000E+00  0.000E+00  0.000E+00  4.79667E+01  1.826E-01  2.000E+01  2.000E+04 -1.908E+00
   1   14    3     1     3    1.6648E+05 -3.3598E+04   2.0008E+05  0.000E+00  0.000E+00  0.000E+00  4.75149E+01  2.081E-01  2.000E+01  2.000E+04 -1.680E+00
   1   15    4     1     4    2.0008E+05 -3.2775E+04   2.3285E+05  0.000E+00  0.000E+00  0.000E+00  4.70595E+01  2.299E-01  2.000E+01  2.000E+04 -1.639E+00
   1   16    5     1     5    2.3285E+05 -3.4165E+04   2.6702E+05  0.000E+00  0.000E+00  0.000E+00  4.66029E+01  2.506E-01  2.000E+01  2.000E+04 -1.708E+00
   1   16    6     1     6    2.6702E+05 -2.9809E+04   2.9683E+05  0.000E+00  0.000E+00  0.000E+00  4.61444E+01  2.694E-01  2.000E+01  2.000E+04 -1.490E+00
   1   16    7     1     7    2.9683E+05 -2.9565E+04   3.2639E+05  0.000E+00  0.000E+00  0.000E+00  4.56838E+01  2.861E-01  2.000E+01  2.000E+04 -1.478E+00
   1   16    8     1     8    3.2639E+05 -2.9651E+04   3.5604E+05  0.000E+00  0.000E+00  0.000E+00  4.52225E+01  3.021E-01  2.000E+01  2.000E+04 -1.483E+00
   1   16    9     1     9    3.5604E+05 -2.9580E+04   3.8562E+05  0.000E+00  0.000E+00  0.000E+00  4.47607E+01  3.176E-01  2.000E+01  2.000E+04 -1.479E+00
   1   16   10     1    10    3.8562E+05 -2.9363E+04   4.1498E+05  0.000E+00  0.000E+00  0.000E+00  4.42984E+01  3.325E-01  2.000E+01  2.000E+04 -1.468E+00
   1   16   11     1    11    4.1498E+05 -2.9529E+04   4.4451E+05  0.000E+00  0.000E+00  0.000E+00  4.38356E+01  3.469E-01  2.000E+01  2.000E+04 -1.476E+00
   1   16   12     1    12    4.4451E+05 -3.3949E+04   4.7846E+05  0.000E+00  0.000E+00  0.000E+00  4.33735E+01  3.621E-01  2.000E+01  2.000E+04 -1.697E+00
   1   15   13     1    13    4.7846E+05 -3.2847E+04   5.1131E+05  0.000E+00  0.000E+00  0.000E+00  4.29117E+01  3.776E-01  2.000E+01  2.000E+04 -1.642E+00
   1   14   14     1    14    5.1131E+05 -3.3787E+04   5.4510E+05  0.000E+00  0.000E+00  0.000E+00  4.24495E+01  3.926E-01  2.000E+01  2.000E+04 -1.689E+00
   1   13   15     1    15    5.4510E+05 -3.6538E+04   5.8163E+05  0.000E+00  0.000E+00  0.000E+00  4.19877E+01  4.081E-01  2.000E+01  2.000E+04 -1.827E+00
   1   12   16     1    16    5.8163E+05 -4.3259E+04   6.2489E+05  0.000E+00  0.000E+00  0.000E+00  4.15275E+01  4.252E-01  2.000E+01  2.000E+04 -2.163E+00
   1   12   17     1    17    6.2489E+05 -3.3609E+04   6.5850E+05  0.000E+00  0.000E+00  0.000E+00  4.10663E+01  4.413E-01  2.000E+01  2.000E+04 -1.680E+00
   1   12   18     1    18    6.5850E+05 -3.1973E+04   6.9048E+05  0.000E+00  0.000E+00  0.000E+00  4.06024E+01  4.547E-01  2.000E+01  2.000E+04 -1.599E+00
   1   12   19     1    19    6.9048E+05 -3.6173E+04   7.2665E+05  0.000E+00  0.000E+00  0.000E+00  4.01388E+01  4.683E-01  2.000E+01  2.000E+04 -1.809E+00
   1   13   20     1    20    7.2665E+05 -2.5811E+04   7.5246E+05  0.000E+00  0.000E+00  0.000E+00  3.96737E+01  4.805E-01  2.000E+01  2.000E+04 -1.291E+00
   1   14   21     1    21    7.5246E+05 -1.8182E+04   7.7064E+05  0.000E+00  0.000E+00  0.000E+00  3.92049E+01  4.890E-01  2.000E+01  2.000E+04 -9.091E-01
   1   14   22     1    22    7.7064E+05 -1.3590E+03   7.7200E+05  0.000E+00  0.000E+00  0.000E+00  3.87314E+01  4.928E-01  2.000E+01  2.000E+04 -6.795E-02
   1    9   30     2     1    5.0000E+04 -2.6649E+04   7.6649E+04  0.000E+00  0.000E+00  0.000E+00  4.02585E+01  1.335E-01  2.000E+01  2.000E+04 -1.332E+00
   1    9   29     2     2    7.6649E+04 -2.9059E+04   1.0571E+05  0.000E+00  0.000E+00  0.000E+00  4.00412E+01  1.662E-01  2.000E+01  2.000E+04 -1.453E+00
   1    9   28     2     3    1.0571E+05 -3.3217E+04   1.3893E+05  0.000E+00  0.000E+00  0.000E+00  3.98232E+01  1.982E-01  2.000E+01  2.000E+04 -1.661E+00
   1    9   27     2     4    1.3893E+05 -4.7076E+04   1.8600E+05  0.000E+00  0.000E+00  0.000E+00  3.96100E+01  2.350E-01  2.000E+01  2.000E+04 -2.354E+00
   1   10   26     2     5    1.8600E+05 -3.3352E+04   2.1935E+05  0.000E+00  0.000E+00  0.000E+00  3.93933E+01  2.683E-01  2.000E+01  2.000E+04 -1.668E+00
   1   11   25     2     6    2.1935E+05 -2.5206E+04   2.4456E+05  0.000E+00  0.000E+00  0.000E+00  3.91659E+01  2.909E-01  2.000E+01  2.000E+04 -1.260E+00
   1   12   24     2     7    2.4456E+05 -1.8661E+04   2.6322E+05  0.000E+00  0.000E+00  0.000E+00  3.89322E+01  3.072E-01  2.000E+01  2.000E+04 -9.331E-01
   1   13   23     2     8    2.6322E+05 -1.3165E+04   2.7639E+05  0.000E+00  0.000E+00  0.000E+00  3.86936E+01  3.186E-01  2.000E+01  2.000E+04 -6.582E-01
   1   14   22     2     9    2.7639E+05 -6.9747E+03   2.8336E+05  0.000E+00  0.000E+00  0.000E+00  3.84506E+01  3.256E-01  2.000E+01  2.000E+04 -3.487E-01
   1   14   22     3     1    1.0554E+06 -1.4963E+04   1.0703E+06  0.000E+00  0.000E+00  0.000E+00  3.80512E+01  4.957E-01  2.000E+01  2.000E+04 -7.482E-01
   1   15   23     3     2    1.0703E+06 -2.2163E+04   1.0925E+06  0.000E+00  0.000E+00  0.000E+00  3.71675E+01  5.008E-01  2.000E+01  2.000E+04 -1.108E+00
   1   15   24     3     3    1.0925E+06 -1.8895E+04   1.1114E+06  0.000E+00  0.000E+00  0.000E+00  3.62843E+01  5.065E-01  2.000E+01  2.000E+04 -9.447E-01
   1   15   25     3     4    1.1114E+06 -1.8836E+04   1.1302E+06  0.000E+00  0.000E+00  0.000E+00  3.54006E+01  5.117E-01  2.000E+01  2.000E+04 -9.418E-01
   1   15   26     3     5    1.1302E+06 -2.1871E+04   1.1521E+06  0.000E+00  0.000E+00  0.000E+00  3.45173E+01  5.173E-01  2.000E+01  2.000E+04 -1.094E+00
   1   16   27     3     6    1.1521E+06 -2.8848E+04   1.1809E+06  0.000E+00  0.000E+00  0.000E+00  3.36352E+01  5.241E-01  2.000E+01  2.000E+04 -1.442E+00
   1   17   28     3     7    1.1809E+06 -3.5915E+04   1.2169E+06  0.000E+00  0.000E+00  0.000E+00  3.27550E+01  5.328E-01  2.000E+01  2.000E+04 -1.796E+00
   1   18   29     3     8    1.2169E+06 -4.6942E+04   1.2638E+06  0.000E+00  0.000E+00  0.000E+00  3.18771E+01  5.438E-01  2.000E+01  2.000E+04 -2.347E+00
   1   18   30     3     9    1.2638E+06 -4.3607E+04   1.3074E+06  0.000E+00  0.000E+00  0.000E+00  3.10000E+01  5.556E-01  2.000E+01  2.000E+04 -2.180E+00



1
              HEAD IN LAYER   1 AT END OF TIME STEP   1 IN STRESS PERIOD   10
  ---------------------------------------------------------------------------

          1      2      3      4      5      6      7      8      9     10
         11     12     13     14     15     16     17     18     19     20
         21     22     23     24     25     26     27     28     29     30
 .........................................................................
   1  ****** ****** ****** ****** ****** ****** ****** ****** ****** ******
      ****** ****** ****** ****** ****** ****** ****** ****** ****** ******
      ****** ****** ****** ****** ****** ****** ****** ****** ****** ******
   2  ****** ****** ****** ****** ****** ****** ****** ****** ****** ******
      ****** ****** ****** ****** ****** ****** ****** ****** ****** ******
      ****** ****** ****** ****** ****** ****** ****** ****** ****** ******
   3  ****** ****** ****** ****** ****** ****** ****** ****** ****** ******
      ****** ****** ****** ****** ****** ****** ****** ****** ****** ******
      ****** ****** ****** ****** ****** ****** ****** ****** ****** ******
   4  ****** ****** ****** ****** ****** ****** ****** ****** ****** ******
      ****** ****** ****** ****** ****** ****** ****** ****** ****** ******
      ****** ****** ****** ****** ****** ****** ****** ****** ****** ******
   5  ****** ****** ****** ****** ****** ****** ****** ****** ****** ******
      ****** ****** ****** ****** ****** ****** ****** ****** ****** ******
      ****** ****** ****** ****** ****** ****** ****** ****** ****** ******
   6  ****** ****** ****** ****** ****** ****** ****** ****** ****** ******
      ****** ****** ****** ****** ****** ****** ****** ****** ****** ******
      ****** ****** ****** ****** ****** ****** ****** ****** ****** ******
   7  ****** ****** ****** ****** ****** ****** ****** ****** ****** ******
      ****** ****** ****** ****** ****** ****** ****** ****** ****** ******
      ****** ****** ****** ****** ****** ****** ****** ****** ****** ******
   8  ****** ****** ****** ****** ****** ****** ****** ****** ****** ******
      ****** ****** ****** ****** ****** ****** ****** ****** ****** ******
      ****** ****** ****** ****** ****** ****** ****** ****** ****** ******
   9  ****** ****** ****** ****** ****** ****** ****** ****** ****** ******
      ****** ****** ****** ****** ****** ****** ****** ****** ****** ******
      ****** ****** ****** ****** ****** ****** ****** ****** ****** ******
  10  ****** ****** ****** ****** ****** ****** ****** ****** ****** ******
      ****** ****** ****** ****** ****** ****** ****** ****** ****** ******
      ****** ****** ****** ****** ****** ****** ****** ****** ****** ******
  11  ****** ****** ****** ****** ****** ****** ****** ****** ****** ******
      ****** ****** ****** ****** ****** ****** ****** ****** ****** ******
      ****** ****** ****** ****** ****** ****** ****** ****** ****** ******
  12  ****** ****** ****** ****** ****** ****** ****** ****** ****** ******
      ****** ****** ****** ****** ****** ****** ****** ****** ****** ******
      ****** ****** ****** ****** ****** ****** ****** ****** ****** ******
  13  ****** ****** ****** ****** ****** ****** ****** ****** ****** ******
      ****** ****** ****** ****** ****** ****** ****** ****** ****** ******
      ****** ****** ****** ****** ****** ****** ****** ****** ****** ******
  14  ****** ****** ****** ****** ****** ****** ****** ****** ****** ******
      ****** ****** ****** ****** ****** ****** ****** ****** ****** ******
      ****** ****** ****** ****** ****** ****** ****** ****** ****** ******
  15  ****** ****** ****** ****** ****** ****** ****** ****** ****** ******
      ****** ****** ****** ****** ****** ****** ****** ****** ****** ******
      ****** ****** ****** ****** ****** ****** ****** ****** ****** ******
  16  ****** ****** ****** ****** ****** ****** ****** ****** ****** ******
      ****** ****** ****** ****** ****** ****** ****** ****** ****** ******
      ****** ****** ****** ****** ****** ****** ****** ****** ****** ******
  17  ****** ****** ****** ****** ****** ****** ****** ****** ****** ******
      ****** ****** ****** ****** ****** ****** ****** ****** ****** ******
      ****** ****** ****** ****** ****** ****** ****** ****** ****** ******
  18  ****** ****** ****** ****** ****** ****** ****** ****** ****** ******
      ****** ****** ****** ****** ****** ****** ****** ****** ****** ******
      ****** ****** ****** ****** ****** ****** ****** ****** ****** ******
  19  ****** ****** ****** ****** ****** ****** ****** ****** ****** ******
      ****** ****** ****** ****** ****** ****** ****** ****** ****** ******
      ****** ****** ****** ****** ****** ****** ****** ****** ****** ******
  20  ****** ****** ****** ****** ****** ****** ****** ****** ****** ******
      ****** ****** ****** ****** ****** ****** ****** ****** ****** ******
      ****** ****** ****** ****** ****** ****** ****** ****** ****** ******
  21  ****** ****** ****** ****** ****** ****** ****** ****** ****** ******
      ****** ****** ****** ****** ****** ****** ****** ****** ****** ******
      ****** ****** ****** ****** ****** ****** ****** ****** ****** ******
  22  ****** ****** ****** ****** ****** ****** ****** ****** ****** ******
      ****** ****** ****** ****** ****** ****** ****** ****** ****** ******
      ****** ****** ****** ****** ****** ****** ****** ****** ****** ******
  23  ****** ****** ****** ****** ****** ****** ****** ****** ****** ******
      ****** ****** ****** ****** ****** ****** ****** ****** ****** ******
      ****** ****** ****** ****** ****** ****** ****** ****** ****** ******
  24  ****** ****** ****** ****** ****** ****** ****** ****** ****** ******
      ****** ****** ****** ****** ****** ****** ****** ****** ****** ******
      ****** ****** ****** ****** ****** ****** ****** ****** ****** ******
  25  ****** ****** ****** ****** ****** ****** ****** ****** ****** ******
      ****** ****** ****** ****** ****** ****** ****** ****** ****** ******
      ****** ****** ****** ****** ****** ****** ****** ****** ****** ******

 HEAD WILL BE SAVED ON UNIT   51 AT END OF TIME STEP    1, STRESS PERIOD   10
1
  VOLUMETRIC BUDGET FOR ENTIRE MODEL AT END OF TIME STEP    1, STRESS PERIOD  10
  ------------------------------------------------------------------------------

     CUMULATIVE VOLUMES      L**3       RATES FOR THIS TIME STEP      L**3/T
     ------------------                 ------------------------

           IN:                                      IN:
           ---                                      ---
             STORAGE =    20703258.8565               STORAGE =           0.0000
       CONSTANT HEAD =  1098664406.7937         CONSTANT HEAD =     1187466.0691
               WELLS =           0.0000                 WELLS =           0.0000
            RECHARGE =    23901600.0000              RECHARGE =       55200.0000
      STREAM LEAKAGE =           0.0000        STREAM LEAKAGE =           0.0000

            TOTAL IN =  1143269265.6501              TOTAL IN =     1242666.0691

          OUT:                                     OUT:
          ----                                     ----
             STORAGE =      701895.5228               STORAGE =        1938.3834
       CONSTANT HEAD =           0.0000         CONSTANT HEAD =           0.0000
               WELLS =   102002944.7956                 WELLS =       83325.9270
            RECHARGE =           0.0000              RECHARGE =           0.0000
      STREAM LEAKAGE =  1040564428.6171        STREAM LEAKAGE =     1157401.7252

           TOTAL OUT =  1143269268.9355             TOTAL OUT =     1242666.0356

            IN - OUT =          -3.2854              IN - OUT =       3.3457E-02

 PERCENT DISCREPANCY =          -0.00     PERCENT DISCREPANCY =           0.00






         TIME SUMMARY AT END OF TIME STEP    1 IN STRESS PERIOD   10
                    SECONDS     MINUTES      HOURS       DAYS        YEARS
                    -----------------------------------------------------------
   TIME STEP LENGTH 7.86240E+06 1.31040E+05  2184.0      91.000     0.24914    
 STRESS PERIOD TIME 7.86240E+06 1.31040E+05  2184.0      91.000     0.24914    
         TOTAL TIME 7.88832E+07 1.31472E+06  21912.      913.00      2.4997    
1
1
                            STRESS PERIOD NO.   11, LENGTH =   91.00000    
                            -----------------------------------------------

                              NUMBER OF TIME STEPS =     1

                               MULTIPLIER FOR DELT =     1.500

                            INITIAL TIME STEP SIZE =   91.00000    

 WELL NO.  LAYER   ROW   COL   STRESS RATE         
 --------------------------------------------------
      1      1     19     16     -0.2814E+05
      2      1      7     26      -5190.    
      3      1     22     20     -0.5000E+05

      3 WELLS

                 RECHARGE =   0.00000    

 REUSING STREAM SEGMENT DATA FROM LAST STRESS PERIOD
 
 SOLVING FOR HEAD 


     6 CALLS TO PCG ROUTINE FOR TIME STEP   1 IN STRESS PERIOD   11
    22 TOTAL ITERATIONS

 OUTPUT CONTROL FOR STRESS PERIOD   11   TIME STEP    1
    SAVE BUDGET
    SAVE HEAD FOR ALL LAYERS
    PRINT HEAD FOR ALL LAYERS
 UBDSV2 SAVING "STREAMFLOW OUT  " ON UNIT  50 AT TIME STEP  1, STRESS PERIOD  11



 STREAM LISTING     PERIOD     11   STEP        1

 LAYER ROW COL. STREAM  RCH.  FLOW INTO     FLOW TO   FLOW OUT OF   OVRLND.     DIRECT     STREAM       STREAM     STREAM     STREAM   STREAMBED  STREAMBED
                SEG.NO.  NO.  STRM. RCH.    AQUIFER    STRM. RCH.    RUNOFF     PRECIP       ET          HEAD       DEPTH      WIDTH   CONDCTNC.   GRADIENT

   1   13    1     1     1    1.0000E+05 -2.7473E+04   1.2747E+05  0.000E+00  0.000E+00  0.000E+00  4.84176E+01  1.563E-01  2.000E+01  2.000E+04 -1.374E+00
   1   13    2     1     2    1.2747E+05 -3.7150E+04   1.6462E+05  0.000E+00  0.000E+00  0.000E+00  4.79657E+01  1.816E-01  2.000E+01  2.000E+04 -1.857E+00
   1   14    3     1     3    1.6462E+05 -3.2607E+04   1.9723E+05  0.000E+00  0.000E+00  0.000E+00  4.75133E+01  2.065E-01  2.000E+01  2.000E+04 -1.630E+00
   1   15    4     1     4    1.9723E+05 -3.1822E+04   2.2905E+05  0.000E+00  0.000E+00  0.000E+00  4.70573E+01  2.278E-01  2.000E+01  2.000E+04 -1.591E+00
   1   16    5     1     5    2.2905E+05 -3.3302E+04   2.6235E+05  0.000E+00  0.000E+00  0.000E+00  4.66003E+01  2.481E-01  2.000E+01  2.000E+04 -1.665E+00
   1   16    6     1     6    2.6235E+05 -2.9059E+04   2.9141E+05  0.000E+00  0.000E+00  0.000E+00  4.61415E+01  2.665E-01  2.000E+01  2.000E+04 -1.453E+00
   1   16    7     1     7    2.9141E+05 -2.8823E+04   3.2024E+05  0.000E+00  0.000E+00  0.000E+00  4.56806E+01  2.829E-01  2.000E+01  2.000E+04 -1.441E+00
   1   16    8     1     8    3.2024E+05 -2.8907E+04   3.4914E+05  0.000E+00  0.000E+00  0.000E+00  4.52191E+01  2.986E-01  2.000E+01  2.000E+04 -1.445E+00
   1   16    9     1     9    3.4914E+05 -2.8836E+04   3.7798E+05  0.000E+00  0.000E+00  0.000E+00  4.47570E+01  3.138E-01  2.000E+01  2.000E+04 -1.442E+00
   1   16   10     1    10    3.7798E+05 -2.8622E+04   4.0660E+05  0.000E+00  0.000E+00  0.000E+00  4.42944E+01  3.285E-01  2.000E+01  2.000E+04 -1.431E+00
   1   16   11     1    11    4.0660E+05 -2.8777E+04   4.3538E+05  0.000E+00  0.000E+00  0.000E+00  4.38313E+01  3.427E-01  2.000E+01  2.000E+04 -1.439E+00
   1   16   12     1    12    4.3538E+05 -3.3072E+04   4.6845E+05  0.000E+00  0.000E+00  0.000E+00  4.33689E+01  3.576E-01  2.000E+01  2.000E+04 -1.654E+00
   1   15   13     1    13    4.6845E+05 -3.1881E+04   5.0033E+05  0.000E+00  0.000E+00  0.000E+00  4.29069E+01  3.728E-01  2.000E+01  2.000E+04 -1.594E+00
   1   14   14     1    14    5.0033E+05 -3.2790E+04   5.3312E+05  0.000E+00  0.000E+00  0.000E+00  4.24443E+01  3.875E-01  2.000E+01  2.000E+04 -1.639E+00
   1   13   15     1    15    5.3312E+05 -3.5549E+04   5.6867E+05  0.000E+00  0.000E+00  0.000E+00  4.19822E+01  4.027E-01  2.000E+01  2.000E+04 -1.777E+00
   1   12   16     1    16    5.6867E+05 -4.2305E+04   6.1098E+05  0.000E+00  0.000E+00  0.000E+00  4.15218E+01  4.195E-01  2.000E+01  2.000E+04 -2.115E+00
   1   12   17     1    17    6.1098E+05 -3.2839E+04   6.4381E+05  0.000E+00  0.000E+00  0.000E+00  4.10604E+01  4.354E-01  2.000E+01  2.000E+04 -1.642E+00
   1   12   18     1    18    6.4381E+05 -3.1237E+04   6.7505E+05  0.000E+00  0.000E+00  0.000E+00  4.05963E+01  4.486E-01  2.000E+01  2.000E+04 -1.562E+00
   1   12   19     1    19    6.7505E+05 -3.5368E+04   7.1042E+05  0.000E+00  0.000E+00  0.000E+00  4.01325E+01  4.620E-01  2.000E+01  2.000E+04 -1.768E+00
   1   13   20     1    20    7.1042E+05 -2.5058E+04   7.3548E+05  0.000E+00  0.000E+00  0.000E+00  3.96672E+01  4.740E-01  2.000E+01  2.000E+04 -1.253E+00
   1   14   21     1    21    7.3548E+05 -1.7533E+04   7.5301E+05  0.000E+00  0.000E+00  0.000E+00  3.91982E+01  4.823E-01  2.000E+01  2.000E+04 -8.766E-01
   1   14   22     1    22    7.5301E+05 -1.1301E+03   7.5414E+05  0.000E+00  0.000E+00  0.000E+00  3.87246E+01  4.860E-01  2.000E+01  2.000E+04 -5.651E-02
   1    9   30     2     1    5.0000E+04 -2.6063E+04   7.6063E+04  0.000E+00  0.000E+00  0.000E+00  4.02581E+01  1.331E-01  2.000E+01  2.000E+04 -1.303E+00
   1    9   29     2     2    7.6063E+04 -2.8474E+04   1.0454E+05  0.000E+00  0.000E+00  0.000E+00  4.00402E+01  1.652E-01  2.000E+01  2.000E+04 -1.424E+00
   1    9   28     2     3    1.0454E+05 -3.2612E+04   1.3715E+05  0.000E+00  0.000E+00  0.000E+00  3.98217E+01  1.967E-01  2.000E+01  2.000E+04 -1.631E+00
   1    9   27     2     4    1.3715E+05 -4.6336E+04   1.8349E+05  0.000E+00  0.000E+00  0.000E+00  3.96081E+01  2.331E-01  2.000E+01  2.000E+04 -2.317E+00
   1   10   26     2     5    1.8349E+05 -3.2584E+04   2.1607E+05  0.000E+00  0.000E+00  0.000E+00  3.93910E+01  2.660E-01  2.000E+01  2.000E+04 -1.629E+00
   1   11   25     2     6    2.1607E+05 -2.4465E+04   2.4053E+05  0.000E+00  0.000E+00  0.000E+00  3.91632E+01  2.882E-01  2.000E+01  2.000E+04 -1.223E+00
   1   12   24     2     7    2.4053E+05 -1.7998E+04   2.5853E+05  0.000E+00  0.000E+00  0.000E+00  3.89290E+01  3.040E-01  2.000E+01  2.000E+04 -8.999E-01
   1   13   23     2     8    2.5853E+05 -1.2626E+04   2.7116E+05  0.000E+00  0.000E+00  0.000E+00  3.86900E+01  3.150E-01  2.000E+01  2.000E+04 -6.313E-01
   1   14   22     2     9    2.7116E+05 -6.6844E+03   2.7784E+05  0.000E+00  0.000E+00  0.000E+00  3.84469E+01  3.219E-01  2.000E+01  2.000E+04 -3.342E-01
   1   14   22     3     1    1.0320E+06 -1.4730E+04   1.0467E+06  0.000E+00  0.000E+00  0.000E+00  3.80446E+01  4.891E-01  2.000E+01  2.000E+04 -7.365E-01
   1   15   23     3     2    1.0467E+06 -2.1558E+04   1.0683E+06  0.000E+00  0.000E+00  0.000E+00  3.71608E+01  4.942E-01  2.000E+01  2.000E+04 -1.078E+00
   1   15   24     3     3    1.0683E+06 -1.8394E+04   1.0867E+06  0.000E+00  0.000E+00  0.000E+00  3.62775E+01  4.997E-01  2.000E+01  2.000E+04 -9.197E-01
   1   15   25     3     4    1.0867E+06 -1.8338E+04   1.1050E+06  0.000E+00  0.000E+00  0.000E+00  3.53937E+01  5.048E-01  2.000E+01  2.000E+04 -9.169E-01
   1   15   26     3     5    1.1050E+06 -2.1291E+04   1.1263E+06  0.000E+00  0.000E+00  0.000E+00  3.45103E+01  5.103E-01  2.000E+01  2.000E+04 -1.065E+00
   1   16   27     3     6    1.1263E+06 -2.8148E+04   1.1544E+06  0.000E+00  0.000E+00  0.000E+00  3.36282E+01  5.170E-01  2.000E+01  2.000E+04 -1.407E+00
   1   17   28     3     7    1.1544E+06 -3.5198E+04   1.1896E+06  0.000E+00  0.000E+00  0.000E+00  3.27478E+01  5.256E-01  2.000E+01  2.000E+04 -1.760E+00
   1   18   29     3     8    1.1896E+06 -4.6269E+04   1.2359E+06  0.000E+00  0.000E+00  0.000E+00  3.18698E+01  5.365E-01  2.000E+01  2.000E+04 -2.313E+00
   1   18   30     3     9    1.2359E+06 -4.3045E+04   1.2790E+06  0.000E+00  0.000E+00  0.000E+00  3.09927E+01  5.483E-01  2.000E+01  2.000E+04 -2.152E+00



1
              HEAD IN LAYER   1 AT END OF TIME STEP   1 IN STRESS PERIOD   11
  ---------------------------------------------------------------------------

          1      2      3      4      5      6      7      8      9     10
         11     12     13     14     15     16     17     18     19     20
         21     22     23     24     25     26     27     28     29     30
 .........................................................................
   1  ****** ****** ****** ****** ****** ****** ****** ****** ****** ******
      ****** ****** ****** ****** ****** ****** ****** ****** ****** ******
      ****** ****** ****** ****** ****** ****** ****** ****** ****** ******
   2  ****** ****** ****** ****** ****** ****** ****** ****** ****** ******
      ****** ****** ****** ****** ****** ****** ****** ****** ****** ******
      ****** ****** ****** ****** ****** ****** ****** ****** ****** ******
   3  ****** ****** ****** ****** ****** ****** ****** ****** ****** ******
      ****** ****** ****** ****** ****** ****** ****** ****** ****** ******
      ****** ****** ****** ****** ****** ****** ****** ****** ****** ******
   4  ****** ****** ****** ****** ****** ****** ****** ****** ****** ******
      ****** ****** ****** ****** ****** ****** ****** ****** ****** ******
      ****** ****** ****** ****** ****** ****** ****** ****** ****** ******
   5  ****** ****** ****** ****** ****** ****** ****** ****** ****** ******
      ****** ****** ****** ****** ****** ****** ****** ****** ****** ******
      ****** ****** ****** ****** ****** ****** ****** ****** ****** ******
   6  ****** ****** ****** ****** ****** ****** ****** ****** ****** ******
      ****** ****** ****** ****** ****** ****** ****** ****** ****** ******
      ****** ****** ****** ****** ****** ****** ****** ****** ****** ******
   7  ****** ****** ****** ****** ****** ****** ****** ****** ****** ******
      ****** ****** ****** ****** ****** ****** ****** ****** ****** ******
      ****** ****** ****** ****** ****** ****** ****** ****** ****** ******
   8  ****** ****** ****** ****** ****** ****** ****** ****** ****** ******
      ****** ****** ****** ****** ****** ****** ****** ****** ****** ******
      ****** ****** ****** ****** ****** ****** ****** ****** ****** ******
   9  ****** ****** ****** ****** ****** ****** ****** ****** ****** ******
      ****** ****** ****** ****** ****** ****** ****** ****** ****** ******
      ****** ****** ****** ****** ****** ****** ****** ****** ****** ******
  10  ****** ****** ****** ****** ****** ****** ****** ****** ****** ******
      ****** ****** ****** ****** ****** ****** ****** ****** ****** ******
      ****** ****** ****** ****** ****** ****** ****** ****** ****** ******
  11  ****** ****** ****** ****** ****** ****** ****** ****** ****** ******
      ****** ****** ****** ****** ****** ****** ****** ****** ****** ******
      ****** ****** ****** ****** ****** ****** ****** ****** ****** ******
  12  ****** ****** ****** ****** ****** ****** ****** ****** ****** ******
      ****** ****** ****** ****** ****** ****** ****** ****** ****** ******
      ****** ****** ****** ****** ****** ****** ****** ****** ****** ******
  13  ****** ****** ****** ****** ****** ****** ****** ****** ****** ******
      ****** ****** ****** ****** ****** ****** ****** ****** ****** ******
      ****** ****** ****** ****** ****** ****** ****** ****** ****** ******
  14  ****** ****** ****** ****** ****** ****** ****** ****** ****** ******
      ****** ****** ****** ****** ****** ****** ****** ****** ****** ******
      ****** ****** ****** ****** ****** ****** ****** ****** ****** ******
  15  ****** ****** ****** ****** ****** ****** ****** ****** ****** ******
      ****** ****** ****** ****** ****** ****** ****** ****** ****** ******
      ****** ****** ****** ****** ****** ****** ****** ****** ****** ******
  16  ****** ****** ****** ****** ****** ****** ****** ****** ****** ******
      ****** ****** ****** ****** ****** ****** ****** ****** ****** ******
      ****** ****** ****** ****** ****** ****** ****** ****** ****** ******
  17  ****** ****** ****** ****** ****** ****** ****** ****** ****** ******
      ****** ****** ****** ****** ****** ****** ****** ****** ****** ******
      ****** ****** ****** ****** ****** ****** ****** ****** ****** ******
  18  ****** ****** ****** ****** ****** ****** ****** ****** ****** ******
      ****** ****** ****** ****** ****** ****** ****** ****** ****** ******
      ****** ****** ****** ****** ****** ****** ****** ****** ****** ******
  19  ****** ****** ****** ****** ****** ****** ****** ****** ****** ******
      ****** ****** ****** ****** ****** ****** ****** ****** ****** ******
      ****** ****** ****** ****** ****** ****** ****** ****** ****** ******
  20  ****** ****** ****** ****** ****** ****** ****** ****** ****** ******
      ****** ****** ****** ****** ****** ****** ****** ****** ****** ******
      ****** ****** ****** ****** ****** ****** ****** ****** ****** ******
  21  ****** ****** ****** ****** ****** ****** ****** ****** ****** ******
      ****** ****** ****** ****** ****** ****** ****** ****** ****** ******
      ****** ****** ****** ****** ****** ****** ****** ****** ****** ******
  22  ****** ****** ****** ****** ****** ****** ****** ****** ****** ******
      ****** ****** ****** ****** ****** ****** ****** ****** ****** ******
      ****** ****** ****** ****** ****** ****** ****** ****** ****** ******
  23  ****** ****** ****** ****** ****** ****** ****** ****** ****** ******
      ****** ****** ****** ****** ****** ****** ****** ****** ****** ******
      ****** ****** ****** ****** ****** ****** ****** ****** ****** ******
  24  ****** ****** ****** ****** ****** ****** ****** ****** ****** ******
      ****** ****** ****** ****** ****** ****** ****** ****** ****** ******
      ****** ****** ****** ****** ****** ****** ****** ****** ****** ******
  25  ****** ****** ****** ****** ****** ****** ****** ****** ****** ******
      ****** ****** ****** ****** ****** ****** ****** ****** ****** ******
      ****** ****** ****** ****** ****** ****** ****** ****** ****** ******

 HEAD WILL BE SAVED ON UNIT   51 AT END OF TIME STEP    1, STRESS PERIOD   11
1
  VOLUMETRIC BUDGET FOR ENTIRE MODEL AT END OF TIME STEP    1, STRESS PERIOD  11
  ------------------------------------------------------------------------------

     CUMULATIVE VOLUMES      L**3       RATES FOR THIS TIME STEP      L**3/T
     ------------------                 ------------------------

           IN:                                      IN:
           ---                                      ---
             STORAGE =    20932257.8705               STORAGE =        2516.4727
       CONSTANT HEAD =  1208753036.5630         CONSTANT HEAD =     1209765.1623
               WELLS =           0.0000                 WELLS =           0.0000
            RECHARGE =    23901600.0000              RECHARGE =           0.0000
      STREAM LEAKAGE =           0.0000        STREAM LEAKAGE =           0.0000

            TOTAL IN =  1253586894.4335              TOTAL IN =     1212281.6350

          OUT:                                     OUT:
          ----                                     ----
             STORAGE =      701895.5228               STORAGE =           0.0000
       CONSTANT HEAD =           0.0000         CONSTANT HEAD =           0.0000
               WELLS =   109585604.1492                 WELLS =       83325.9270
            RECHARGE =           0.0000              RECHARGE =           0.0000
      STREAM LEAKAGE =  1143299402.1111        STREAM LEAKAGE =     1128955.7527

           TOTAL OUT =  1253586901.7831             TOTAL OUT =     1212281.6796

            IN - OUT =          -7.3496              IN - OUT =      -4.4662E-02

 PERCENT DISCREPANCY =          -0.00     PERCENT DISCREPANCY =          -0.00






         TIME SUMMARY AT END OF TIME STEP    1 IN STRESS PERIOD   11
                    SECONDS     MINUTES      HOURS       DAYS        YEARS
                    -----------------------------------------------------------
   TIME STEP LENGTH 7.86240E+06 1.31040E+05  2184.0      91.000     0.24914    
 STRESS PERIOD TIME 7.86240E+06 1.31040E+05  2184.0      91.000     0.24914    
         TOTAL TIME 8.67456E+07 1.44576E+06  24096.      1004.0      2.7488    
1
1
                            STRESS PERIOD NO.   12, LENGTH =   91.00000    
                            -----------------------------------------------

                              NUMBER OF TIME STEPS =     1

                               MULTIPLIER FOR DELT =     1.500

                            INITIAL TIME STEP SIZE =   91.00000    

 WELL NO.  LAYER   ROW   COL   STRESS RATE         
 --------------------------------------------------
      1      1     19     16     -0.2814E+05
      2      1      7     26      -5190.    
      3      1     22     20     -0.5000E+05

      3 WELLS

                 RECHARGE =  1.000000E-03

 REUSING STREAM SEGMENT DATA FROM LAST STRESS PERIOD
 
 SOLVING FOR HEAD 


     6 CALLS TO PCG ROUTINE FOR TIME STEP   1 IN STRESS PERIOD   12
    22 TOTAL ITERATIONS

 OUTPUT CONTROL FOR STRESS PERIOD   12   TIME STEP    1
    SAVE BUDGET
    SAVE HEAD FOR ALL LAYERS
    PRINT HEAD FOR ALL LAYERS
 UBDSV2 SAVING "STREAMFLOW OUT  " ON UNIT  50 AT TIME STEP  1, STRESS PERIOD  12



 STREAM LISTING     PERIOD     12   STEP        1

 LAYER ROW COL. STREAM  RCH.  FLOW INTO     FLOW TO   FLOW OUT OF   OVRLND.     DIRECT     STREAM       STREAM     STREAM     STREAM   STREAMBED  STREAMBED
                SEG.NO.  NO.  STRM. RCH.    AQUIFER    STRM. RCH.    RUNOFF     PRECIP       ET          HEAD       DEPTH      WIDTH   CONDCTNC.   GRADIENT

   1   13    1     1     1    1.0000E+05 -2.7865E+04   1.2787E+05  0.000E+00  0.000E+00  0.000E+00  4.84178E+01  1.564E-01  2.000E+01  2.000E+04 -1.393E+00
   1   13    2     1     2    1.2787E+05 -3.7617E+04   1.6548E+05  0.000E+00  0.000E+00  0.000E+00  4.79661E+01  1.820E-01  2.000E+01  2.000E+04 -1.881E+00
   1   14    3     1     3    1.6548E+05 -3.3069E+04   1.9855E+05  0.000E+00  0.000E+00  0.000E+00  4.75140E+01  2.072E-01  2.000E+01  2.000E+04 -1.653E+00
   1   15    4     1     4    1.9855E+05 -3.2268E+04   2.3082E+05  0.000E+00  0.000E+00  0.000E+00  4.70583E+01  2.288E-01  2.000E+01  2.000E+04 -1.613E+00
   1   16    5     1     5    2.3082E+05 -3.3708E+04   2.6453E+05  0.000E+00  0.000E+00  0.000E+00  4.66015E+01  2.493E-01  2.000E+01  2.000E+04 -1.685E+00
   1   16    6     1     6    2.6453E+05 -2.9411E+04   2.9394E+05  0.000E+00  0.000E+00  0.000E+00  4.61429E+01  2.679E-01  2.000E+01  2.000E+04 -1.471E+00
   1   16    7     1     7    2.9394E+05 -2.9171E+04   3.2311E+05  0.000E+00  0.000E+00  0.000E+00  4.56821E+01  2.844E-01  2.000E+01  2.000E+04 -1.459E+00
   1   16    8     1     8    3.2311E+05 -2.9256E+04   3.5237E+05  0.000E+00  0.000E+00  0.000E+00  4.52207E+01  3.002E-01  2.000E+01  2.000E+04 -1.463E+00
   1   16    9     1     9    3.5237E+05 -2.9185E+04   3.8155E+05  0.000E+00  0.000E+00  0.000E+00  4.47588E+01  3.156E-01  2.000E+01  2.000E+04 -1.459E+00
   1   16   10     1    10    3.8155E+05 -2.8970E+04   4.1052E+05  0.000E+00  0.000E+00  0.000E+00  4.42963E+01  3.303E-01  2.000E+01  2.000E+04 -1.448E+00
   1   16   11     1    11    4.1052E+05 -2.9130E+04   4.3965E+05  0.000E+00  0.000E+00  0.000E+00  4.38333E+01  3.447E-01  2.000E+01  2.000E+04 -1.456E+00
   1   16   12     1    12    4.3965E+05 -3.3484E+04   4.7313E+05  0.000E+00  0.000E+00  0.000E+00  4.33711E+01  3.597E-01  2.000E+01  2.000E+04 -1.674E+00
   1   15   13     1    13    4.7313E+05 -3.2333E+04   5.0547E+05  0.000E+00  0.000E+00  0.000E+00  4.29091E+01  3.750E-01  2.000E+01  2.000E+04 -1.617E+00
   1   14   14     1    14    5.0547E+05 -3.3256E+04   5.3872E+05  0.000E+00  0.000E+00  0.000E+00  4.24467E+01  3.899E-01  2.000E+01  2.000E+04 -1.663E+00
   1   13   15     1    15    5.3872E+05 -3.6011E+04   5.7473E+05  0.000E+00  0.000E+00  0.000E+00  4.19848E+01  4.052E-01  2.000E+01  2.000E+04 -1.801E+00
   1   12   16     1    16    5.7473E+05 -4.2749E+04   6.1748E+05  0.000E+00  0.000E+00  0.000E+00  4.15245E+01  4.222E-01  2.000E+01  2.000E+04 -2.137E+00
   1   12   17     1    17    6.1748E+05 -3.3199E+04   6.5068E+05  0.000E+00  0.000E+00  0.000E+00  4.10631E+01  4.381E-01  2.000E+01  2.000E+04 -1.660E+00
   1   12   18     1    18    6.5068E+05 -3.1583E+04   6.8227E+05  0.000E+00  0.000E+00  0.000E+00  4.05992E+01  4.514E-01  2.000E+01  2.000E+04 -1.579E+00
   1   12   19     1    19    6.8227E+05 -3.5747E+04   7.1801E+05  0.000E+00  0.000E+00  0.000E+00  4.01354E+01  4.650E-01  2.000E+01  2.000E+04 -1.787E+00
   1   13   20     1    20    7.1801E+05 -2.5415E+04   7.4343E+05  0.000E+00  0.000E+00  0.000E+00  3.96702E+01  4.771E-01  2.000E+01  2.000E+04 -1.271E+00
   1   14   21     1    21    7.4343E+05 -1.7841E+04   7.6127E+05  0.000E+00  0.000E+00  0.000E+00  3.92014E+01  4.855E-01  2.000E+01  2.000E+04 -8.920E-01
   1   14   22     1    22    7.6127E+05 -1.2398E+03   7.6251E+05  0.000E+00  0.000E+00  0.000E+00  3.87278E+01  4.892E-01  2.000E+01  2.000E+04 -6.199E-02
   1    9   30     2     1    5.0000E+04 -2.6345E+04   7.6345E+04  0.000E+00  0.000E+00  0.000E+00  4.02583E+01  1.333E-01  2.000E+01  2.000E+04 -1.317E+00
   1    9   29     2     2    7.6345E+04 -2.8755E+04   1.0510E+05  0.000E+00  0.000E+00  0.000E+00  4.00407E+01  1.657E-01  2.000E+01  2.000E+04 -1.438E+00
   1    9   28     2     3    1.0510E+05 -3.2902E+04   1.3800E+05  0.000E+00  0.000E+00  0.000E+00  3.98224E+01  1.974E-01  2.000E+01  2.000E+04 -1.645E+00
   1    9   27     2     4    1.3800E+05 -4.6689E+04   1.8469E+05  0.000E+00  0.000E+00  0.000E+00  3.96090E+01  2.340E-01  2.000E+01  2.000E+04 -2.334E+00
   1   10   26     2     5    1.8469E+05 -3.2950E+04   2.1764E+05  0.000E+00  0.000E+00  0.000E+00  3.93921E+01  2.671E-01  2.000E+01  2.000E+04 -1.648E+00
   1   11   25     2     6    2.1764E+05 -2.4819E+04   2.4246E+05  0.000E+00  0.000E+00  0.000E+00  3.91645E+01  2.895E-01  2.000E+01  2.000E+04 -1.241E+00
   1   12   24     2     7    2.4246E+05 -1.8315E+04   2.6078E+05  0.000E+00  0.000E+00  0.000E+00  3.89305E+01  3.055E-01  2.000E+01  2.000E+04 -9.158E-01
   1   13   23     2     8    2.6078E+05 -1.2884E+04   2.7366E+05  0.000E+00  0.000E+00  0.000E+00  3.86917E+01  3.167E-01  2.000E+01  2.000E+04 -6.442E-01
   1   14   22     2     9    2.7366E+05 -6.8222E+03   2.8048E+05  0.000E+00  0.000E+00  0.000E+00  3.84487E+01  3.237E-01  2.000E+01  2.000E+04 -3.411E-01
   1   14   22     3     1    1.0430E+06 -1.4841E+04   1.0578E+06  0.000E+00  0.000E+00  0.000E+00  3.80477E+01  4.922E-01  2.000E+01  2.000E+04 -7.421E-01
   1   15   23     3     2    1.0578E+06 -2.1846E+04   1.0797E+06  0.000E+00  0.000E+00  0.000E+00  3.71640E+01  4.973E-01  2.000E+01  2.000E+04 -1.092E+00
   1   15   24     3     3    1.0797E+06 -1.8634E+04   1.0983E+06  0.000E+00  0.000E+00  0.000E+00  3.62807E+01  5.029E-01  2.000E+01  2.000E+04 -9.317E-01
   1   15   25     3     4    1.0983E+06 -1.8578E+04   1.1169E+06  0.000E+00  0.000E+00  0.000E+00  3.53970E+01  5.081E-01  2.000E+01  2.000E+04 -9.289E-01
   1   15   26     3     5    1.1169E+06 -2.1571E+04   1.1385E+06  0.000E+00  0.000E+00  0.000E+00  3.45136E+01  5.136E-01  2.000E+01  2.000E+04 -1.079E+00
   1   16   27     3     6    1.1385E+06 -2.8484E+04   1.1669E+06  0.000E+00  0.000E+00  0.000E+00  3.36315E+01  5.204E-01  2.000E+01  2.000E+04 -1.424E+00
   1   17   28     3     7    1.1669E+06 -3.5542E+04   1.2025E+06  0.000E+00  0.000E+00  0.000E+00  3.27512E+01  5.290E-01  2.000E+01  2.000E+04 -1.777E+00
   1   18   29     3     8    1.2025E+06 -4.6592E+04   1.2491E+06  0.000E+00  0.000E+00  0.000E+00  3.18733E+01  5.399E-01  2.000E+01  2.000E+04 -2.330E+00
   1   18   30     3     9    1.2491E+06 -4.3316E+04   1.2924E+06  0.000E+00  0.000E+00  0.000E+00  3.09962E+01  5.517E-01  2.000E+01  2.000E+04 -2.166E+00



1
              HEAD IN LAYER   1 AT END OF TIME STEP   1 IN STRESS PERIOD   12
  ---------------------------------------------------------------------------

          1      2      3      4      5      6      7      8      9     10
         11     12     13     14     15     16     17     18     19     20
         21     22     23     24     25     26     27     28     29     30
 .........................................................................
   1  ****** ****** ****** ****** ****** ****** ****** ****** ****** ******
      ****** ****** ****** ****** ****** ****** ****** ****** ****** ******
      ****** ****** ****** ****** ****** ****** ****** ****** ****** ******
   2  ****** ****** ****** ****** ****** ****** ****** ****** ****** ******
      ****** ****** ****** ****** ****** ****** ****** ****** ****** ******
      ****** ****** ****** ****** ****** ****** ****** ****** ****** ******
   3  ****** ****** ****** ****** ****** ****** ****** ****** ****** ******
      ****** ****** ****** ****** ****** ****** ****** ****** ****** ******
      ****** ****** ****** ****** ****** ****** ****** ****** ****** ******
   4  ****** ****** ****** ****** ****** ****** ****** ****** ****** ******
      ****** ****** ****** ****** ****** ****** ****** ****** ****** ******
      ****** ****** ****** ****** ****** ****** ****** ****** ****** ******
   5  ****** ****** ****** ****** ****** ****** ****** ****** ****** ******
      ****** ****** ****** ****** ****** ****** ****** ****** ****** ******
      ****** ****** ****** ****** ****** ****** ****** ****** ****** ******
   6  ****** ****** ****** ****** ****** ****** ****** ****** ****** ******
      ****** ****** ****** ****** ****** ****** ****** ****** ****** ******
      ****** ****** ****** ****** ****** ****** ****** ****** ****** ******
   7  ****** ****** ****** ****** ****** ****** ****** ****** ****** ******
      ****** ****** ****** ****** ****** ****** ****** ****** ****** ******
      ****** ****** ****** ****** ****** ****** ****** ****** ****** ******
   8  ****** ****** ****** ****** ****** ****** ****** ****** ****** ******
      ****** ****** ****** ****** ****** ****** ****** ****** ****** ******
      ****** ****** ****** ****** ****** ****** ****** ****** ****** ******
   9  ****** ****** ****** ****** ****** ****** ****** ****** ****** ******
      ****** ****** ****** ****** ****** ****** ****** ****** ****** ******
      ****** ****** ****** ****** ****** ****** ****** ****** ****** ******
  10  ****** ****** ****** ****** ****** ****** ****** ****** ****** ******
      ****** ****** ****** ****** ****** ****** ****** ****** ****** ******
      ****** ****** ****** ****** ****** ****** ****** ****** ****** ******
  11  ****** ****** ****** ****** ****** ****** ****** ****** ****** ******
      ****** ****** ****** ****** ****** ****** ****** ****** ****** ******
      ****** ****** ****** ****** ****** ****** ****** ****** ****** ******
  12  ****** ****** ****** ****** ****** ****** ****** ****** ****** ******
      ****** ****** ****** ****** ****** ****** ****** ****** ****** ******
      ****** ****** ****** ****** ****** ****** ****** ****** ****** ******
  13  ****** ****** ****** ****** ****** ****** ****** ****** ****** ******
      ****** ****** ****** ****** ****** ****** ****** ****** ****** ******
      ****** ****** ****** ****** ****** ****** ****** ****** ****** ******
  14  ****** ****** ****** ****** ****** ****** ****** ****** ****** ******
      ****** ****** ****** ****** ****** ****** ****** ****** ****** ******
      ****** ****** ****** ****** ****** ****** ****** ****** ****** ******
  15  ****** ****** ****** ****** ****** ****** ****** ****** ****** ******
      ****** ****** ****** ****** ****** ****** ****** ****** ****** ******
      ****** ****** ****** ****** ****** ****** ****** ****** ****** ******
  16  ****** ****** ****** ****** ****** ****** ****** ****** ****** ******
      ****** ****** ****** ****** ****** ****** ****** ****** ****** ******
      ****** ****** ****** ****** ****** ****** ****** ****** ****** ******
  17  ****** ****** ****** ****** ****** ****** ****** ****** ****** ******
      ****** ****** ****** ****** ****** ****** ****** ****** ****** ******
      ****** ****** ****** ****** ****** ****** ****** ****** ****** ******
  18  ****** ****** ****** ****** ****** ****** ****** ****** ****** ******
      ****** ****** ****** ****** ****** ****** ****** ****** ****** ******
      ****** ****** ****** ****** ****** ****** ****** ****** ****** ******
  19  ****** ****** ****** ****** ****** ****** ****** ****** ****** ******
      ****** ****** ****** ****** ****** ****** ****** ****** ****** ******
      ****** ****** ****** ****** ****** ****** ****** ****** ****** ******
  20  ****** ****** ****** ****** ****** ****** ****** ****** ****** ******
      ****** ****** ****** ****** ****** ****** ****** ****** ****** ******
      ****** ****** ****** ****** ****** ****** ****** ****** ****** ******
  21  ****** ****** ****** ****** ****** ****** ****** ****** ****** ******
      ****** ****** ****** ****** ****** ****** ****** ****** ****** ******
      ****** ****** ****** ****** ****** ****** ****** ****** ****** ******
  22  ****** ****** ****** ****** ****** ****** ****** ****** ****** ******
      ****** ****** ****** ****** ****** ****** ****** ****** ****** ******
      ****** ****** ****** ****** ****** ****** ****** ****** ****** ******
  23  ****** ****** ****** ****** ****** ****** ****** ****** ****** ******
      ****** ****** ****** ****** ****** ****** ****** ****** ****** ******
      ****** ****** ****** ****** ****** ****** ****** ****** ****** ******
  24  ****** ****** ****** ****** ****** ****** ****** ****** ****** ******
      ****** ****** ****** ****** ****** ****** ****** ****** ****** ******
      ****** ****** ****** ****** ****** ****** ****** ****** ****** ******
  25  ****** ****** ****** ****** ****** ****** ****** ****** ****** ******
      ****** ****** ****** ****** ****** ****** ****** ****** ****** ******
      ****** ****** ****** ****** ****** ****** ****** ****** ****** ******

 HEAD WILL BE SAVED ON UNIT   51 AT END OF TIME STEP    1, STRESS PERIOD   12
1
  VOLUMETRIC BUDGET FOR ENTIRE MODEL AT END OF TIME STEP    1, STRESS PERIOD  12
  ------------------------------------------------------------------------------

     CUMULATIVE VOLUMES      L**3       RATES FOR THIS TIME STEP      L**3/T
     ------------------                 ------------------------

           IN:                                      IN:
           ---                                      ---
             STORAGE =    20932257.8705               STORAGE =           0.0000
       CONSTANT HEAD =  1317888292.2925         CONSTANT HEAD =     1199288.5245
               WELLS =           0.0000                 WELLS =           0.0000
            RECHARGE =    26413200.0000              RECHARGE =       27600.0000
      STREAM LEAKAGE =           0.0000        STREAM LEAKAGE =           0.0000

            TOTAL IN =  1365233750.1629              TOTAL IN =     1226888.5245

          OUT:                                     OUT:
          ----                                     ----
             STORAGE =      808242.2821               STORAGE =        1168.6457
       CONSTANT HEAD =           0.0000         CONSTANT HEAD =           0.0000
               WELLS =   117168263.5027                 WELLS =       83325.9270
            RECHARGE =           0.0000              RECHARGE =           0.0000
      STREAM LEAKAGE =  1247257249.8521        STREAM LEAKAGE =     1142393.9312

           TOTAL OUT =  1365233755.6369             TOTAL OUT =     1226888.5039

            IN - OUT =          -5.4740              IN - OUT =       2.0611E-02

 PERCENT DISCREPANCY =          -0.00     PERCENT DISCREPANCY =           0.00






         TIME SUMMARY AT END OF TIME STEP    1 IN STRESS PERIOD   12
                    SECONDS     MINUTES      HOURS       DAYS        YEARS
                    -----------------------------------------------------------
   TIME STEP LENGTH 7.86240E+06 1.31040E+05  2184.0      91.000     0.24914    
 STRESS PERIOD TIME 7.86240E+06 1.31040E+05  2184.0      91.000     0.24914    
         TOTAL TIME 9.46080E+07 1.57680E+06  26280.      1095.0      2.9979    
1

 Run end date and time (yyyy/mm/dd hh:mm:ss): 2018/10/02 16:40:40
 Elapsed run time:  0.078 Seconds

