                                  MODFLOW-2005     
      U.S. GEOLOGICAL SURVEY MODULAR FINITE-DIFFERENCE GROUND-WATER FLOW MODEL
                            VERSION 1.11.00 8/8/2013

 LIST FILE: supply2.lst
                         UNIT   10

 OPENING ..\data\supply.dis
 FILE TYPE:DIS   UNIT   11   STATUS:OLD    
 FORMAT:FORMATTED              ACCESS:SEQUENTIAL          

 OPENING ..\data\supply.ba6
 FILE TYPE:BAS6   UNIT   12   STATUS:OLD    
 FORMAT:FORMATTED              ACCESS:SEQUENTIAL          

 OPENING ..\data\supply_het.bc6
 FILE TYPE:BCF6   UNIT   13   STATUS:OLD    
 FORMAT:FORMATTED              ACCESS:SEQUENTIAL          

 OPENING ..\data\supply.rch
 FILE TYPE:RCH   UNIT   15   STATUS:OLD    
 FORMAT:FORMATTED              ACCESS:SEQUENTIAL          

 OPENING ..\data\supply2.sfr
 FILE TYPE:SFR   UNIT   16   STATUS:OLD    
 FORMAT:FORMATTED              ACCESS:SEQUENTIAL          

 OPENING ..\data\supply.oc
 FILE TYPE:OC   UNIT   17   STATUS:OLD    
 FORMAT:FORMATTED              ACCESS:SEQUENTIAL          

 OPENING ..\data\supply.pcg
 FILE TYPE:PCG   UNIT   18   STATUS:OLD    
 FORMAT:FORMATTED              ACCESS:SEQUENTIAL          

 OPENING supply2.wel
 FILE TYPE:WEL   UNIT   19   STATUS:OLD    
 FORMAT:FORMATTED              ACCESS:SEQUENTIAL          

 OPENING supply2sf.cbc
 FILE TYPE:DATA(BINARY)   UNIT   50   STATUS:UNKNOWN
 FORMAT:BINARY                 ACCESS:SEQUENTIAL          

 OPENING supply2hd.bhd
 FILE TYPE:DATA(BINARY)   UNIT   51   STATUS:UNKNOWN
 FORMAT:BINARY                 ACCESS:SEQUENTIAL          

 BAS -- BASIC PACKAGE, VERSION 7, 5/2/2005 INPUT READ FROM UNIT   12
 
 MODFLOW was compiled using uniform precision
 Precision of REAL and DOUBLE PRECISION variables:          15

 DISCRETIZATION INPUT DATA READ FROM UNIT   11
    1 LAYERS        25 ROWS        30 COLUMNS
   12 STRESS PERIOD(S) IN SIMULATION
 MODEL TIME UNIT IS DAYS
 MODEL LENGTH UNIT IS UNDEFINED
  Confining bed flag for each layer:
   0

                     DELR =   200.000    

                     DELC =   200.000    

 TOP ELEVATION OF LAYER 1 =  100.0000    

   MODEL LAYER BOTTOM EL. =   0.00000     FOR LAYER   1


 STRESS PERIOD     LENGTH       TIME STEPS     MULTIPLIER FOR DELT    SS FLAG
 ----------------------------------------------------------------------------
        1         92.00000          1                    1.500         TR
        2         91.00000          1                    1.500         TR
        3         91.00000          1                    1.500         TR
        4         91.00000          1                    1.500         TR
        5         92.00000          1                    1.500         TR
        6         91.00000          1                    1.500         TR
        7         91.00000          1                    1.500         TR
        8         91.00000          1                    1.500         TR
        9         92.00000          1                    1.500         TR
       10         91.00000          1                    1.500         TR
       11         91.00000          1                    1.500         TR
       12         91.00000          1                    1.500         TR

 TRANSIENT SIMULATION



 
 #MODOFC transient water supply sample problem                                   
 #                                                                               
 THE FREE FORMAT OPTION HAS BEEN SELECTED



                     BOUNDARY ARRAY FOR LAYER   1
 READING ON UNIT   12 WITH FORMAT: (20I4)              

 AQUIFER HEAD WILL BE SET TO   0.0000     AT ALL NO-FLOW NODES (IBOUND=0).



                       INITIAL HEAD FOR LAYER   1
 READING ON UNIT   12 WITH FORMAT: (10F13.0)           

 OUTPUT CONTROL IS SPECIFIED ONLY AT TIME STEPS FOR WHICH OUTPUT IS DESIRED
 COMPACT CELL-BY-CELL BUDGET FILES WILL BE WRITTEN
 HEAD PRINT FORMAT CODE IS  18    DRAWDOWN PRINT FORMAT CODE IS   0
 HEADS WILL BE SAVED ON UNIT   51    DRAWDOWNS WILL BE SAVED ON UNIT    0

 BCF -- BLOCK-CENTERED FLOW PACKAGE, VERSION 7, 5/2/2005
         INPUT READ FROM UNIT 13
 TRANSIENT SIMULATION
 HEAD AT CELLS THAT CONVERT TO DRY=   0.0000    
 WETTING CAPABILITY IS NOT ACTIVE
      LAYER  LAYER-TYPE CODE     INTERBLOCK T
      --------------------------------------------
         1            0          0 -- HARMONIC    

 COLUMN TO ROW ANISOTROPY =  1.000000    

     PRIMARY STORAGE COEF =  5.000000E-02 FOR LAYER   1



               TRANSMIS. ALONG ROWS FOR LAYER   1
 READING ON UNIT   13 WITH FORMAT: (FREE)              

 WEL -- WELL PACKAGE, VERSION 7, 5/2/2005 INPUT READ FROM UNIT   19
 # Well package input file written by MMProc
 No named parameters
 MAXIMUM OF      4 ACTIVE WELLS AT ONE TIME


     0 Well parameters

 RCH -- RECHARGE PACKAGE, VERSION 7, 5/2/2005 INPUT READ FROM UNIT   15
 No named parameters
 OPTION 1 -- RECHARGE TO TOP LAYER


     0 Recharge parameters

 SFR7 -- STREAMFLOW ROUTING PACKAGE, VERSION 1.0.7, 2013-01-15
         INPUT READ FROM UNIT  16
 #  Supply2 test problem for GWM-VI
 #  The eighth entry in the first data line is ISTCB2 -
 #    Setting this to a negative number indicates that
 #    streamflows out of the reach will be saved to a
 #    binary file.  The absolute value of ISTCB2 is the
 #    unit to which unformatted flows will be written.
 #
 No named parameters
 Segment information will not be 
 read by reach
 No named parameters
 No specifed inflow files


 NUMBER OF STREAM REACHES IS   40

 NUMBER OF STREAM SEGMENTS IS    3

 NUMBER OF STREAM PARAMETERS IS    0

 NUMBER OF STREAM SEGMENTS DEFINED USING PARAMETERS IS              0

 MAXIMUM ERROR FOR STREAM LEAKAGE RATES IS  1.00E-04

 CONSTANT FOR MANNINGS EQUATION IS  1.2839E+05





   STREAM NETWORK DESCRIPTION: 

   LAYER    ROW    COL   SEGMENT   REACH     LENGTH
                          NUMBER   NUMBER    IN CELL        
   --------------------------------------------------
      1     13      1       1        1    2.0000E+02
      1     13      2       1        2    2.0000E+02
      1     14      3       1        3    2.0000E+02
      1     15      4       1        4    2.0000E+02
      1     16      5       1        5    2.0000E+02
      1     16      6       1        6    2.0000E+02
      1     16      7       1        7    2.0000E+02
      1     16      8       1        8    2.0000E+02
      1     16      9       1        9    2.0000E+02
      1     16     10       1       10    2.0000E+02
      1     16     11       1       11    2.0000E+02
      1     16     12       1       12    2.0000E+02
      1     15     13       1       13    2.0000E+02
      1     14     14       1       14    2.0000E+02
      1     13     15       1       15    2.0000E+02
      1     12     16       1       16    2.0000E+02
      1     12     17       1       17    2.0000E+02
      1     12     18       1       18    2.0000E+02
      1     12     19       1       19    2.0000E+02
      1     13     20       1       20    2.0000E+02
      1     14     21       1       21    2.0000E+02
      1     14     22       1       22    2.0000E+02
      1      9     30       2        1    2.0000E+02
      1      9     29       2        2    2.0000E+02
      1      9     28       2        3    2.0000E+02
      1      9     27       2        4    2.0000E+02
      1     10     26       2        5    2.0000E+02
      1     11     25       2        6    2.0000E+02
      1     12     24       2        7    2.0000E+02
      1     13     23       2        8    2.0000E+02
      1     14     22       2        9    2.0000E+02
      1     14     22       3        1    2.0000E+02
      1     15     23       3        2    2.0000E+02
      1     15     24       3        3    2.0000E+02
      1     15     25       3        4    2.0000E+02
      1     15     26       3        5    2.0000E+02
      1     16     27       3        6    2.0000E+02
      1     17     28       3        7    2.0000E+02
      1     18     29       3        8    2.0000E+02
      1     18     30       3        9    2.0000E+02




 PCG -- CONJUGATE-GRADIENT SOLUTION PACKAGE, VERSION 7, 5/2/2005
 MAXIMUM OF    500 CALLS OF SOLUTION ROUTINE
 MAXIMUM OF      5 INTERNAL ITERATIONS PER CALL TO SOLUTION ROUTINE
 MATRIX PRECONDITIONING TYPE :    1



                                    SOLUTION BY THE CONJUGATE-GRADIENT METHOD
                                   -------------------------------------------
                    MAXIMUM NUMBER OF CALLS TO PCG ROUTINE =      500
                        MAXIMUM ITERATIONS PER CALL TO PCG =        5
                               MATRIX PRECONDITIONING TYPE =        1
        RELAXATION FACTOR (ONLY USED WITH PRECOND. TYPE 1) =    0.10000E+01
 PARAMETER OF POLYNOMIAL PRECOND. = 2 (2) OR IS CALCULATED :        0
                         HEAD CHANGE CRITERION FOR CLOSURE =    0.10000E-05
                     RESIDUAL CHANGE CRITERION FOR CLOSURE =    0.10000E+01
            PCG HEAD AND RESIDUAL CHANGE PRINTOUT INTERVAL =        1
     PRINTING FROM SOLVER IS LIMITED(1) OR SUPPRESSED (>1) =        1
                            STEADY-STATE DAMPING PARAMETER =    0.10000E+01
                               TRANSIENT DAMPING PARAMETER =    0.10000E+01
1
                            STRESS PERIOD NO.    1, LENGTH =   92.00000    
                            -----------------------------------------------

                              NUMBER OF TIME STEPS =     1

                               MULTIPLIER FOR DELT =     1.500

                            INITIAL TIME STEP SIZE =   92.00000    

 WELL NO.  LAYER   ROW   COL   STRESS RATE         
 --------------------------------------------------
      1      1     16     16      -9666.    
      2      1      6     22      -5938.    
      3      1     19     13      -8939.    
      4      1      6     21     -0.1089E+05

      4 WELLS

                 RECHARGE =  5.000000E-04



 CLASSIFICATION & COUNT OF STREAM SEGMENTS BASED ON SOURCE OF INFLOW:

                HEADWATER     DIVERSION     RECEIVES TRIBUTARY FLOW
                ---------     ---------     -----------------------
                     2              0               1



                    INPUT DATA FOR EACH STREAM SEGMENT
 ---------------------------------------------------------------------------------------------

 SEGMENT    SEG.     INFLOW   OVERLAND   STREAM    STREAM   ICALC  OUTFLOW  DIVERSION PRIORITY
    NO.    LENGTH     RATE     RUNOFF      ET       PPT.    METH.  TO SEG.  FROM SEG.    NO.

      1  4.400E+03 1.000E+05 0.000E+00 0.000E+00 0.000E+00    1        3        0        0
      2  1.800E+03 5.000E+04 0.000E+00 0.000E+00 0.000E+00    1        3        0        0
      3  1.800E+03 0.000E+00 0.000E+00 0.000E+00 0.000E+00    1        0        0        0


         STREAMBED PROPERTIES AND STREAM DIMENSIONS

 SEGMENT     BED HYD. COND.      BED THICKNESS     ELEV.-TOP OF BED     WIDTH OF STREAM     DEPTH OF STREAM    STREAM ROUGHNESS
    No.     UPPER     LOWER     UPPER     LOWER     UPPER     LOWER     UPPER     LOWER     UPPER     LOWER   CHANNEL      BANK

     1  5.000E+00 5.000E+00 1.000E+00 1.000E+00 4.850E+01 3.800E+01 2.000E+01 2.000E+01                     5.000E-02
     2  5.000E+00 5.000E+00 1.000E+00 1.000E+00 4.025E+01 3.800E+01 2.000E+01 2.000E+01                     5.000E-02
     3  5.000E+00 5.000E+00 1.000E+00 1.000E+00 3.800E+01 3.000E+01 2.000E+01 2.000E+01                     5.000E-02



 
 SOLVING FOR HEAD 


     9 CALLS TO PCG ROUTINE FOR TIME STEP   1 IN STRESS PERIOD    1
    36 TOTAL ITERATIONS

 OUTPUT CONTROL FOR STRESS PERIOD    1   TIME STEP    1
    SAVE BUDGET
    SAVE HEAD FOR ALL LAYERS
    PRINT HEAD FOR ALL LAYERS
 UBDSV2 SAVING "STREAMFLOW OUT  " ON UNIT  50 AT TIME STEP  1, STRESS PERIOD   1



 STREAM LISTING     PERIOD      1   STEP        1

 LAYER ROW COL. STREAM  RCH.  FLOW INTO     FLOW TO   FLOW OUT OF   OVRLND.     DIRECT     STREAM       STREAM     STREAM     STREAM   STREAMBED  STREAMBED
                SEG.NO.  NO.  STRM. RCH.    AQUIFER    STRM. RCH.    RUNOFF     PRECIP       ET          HEAD       DEPTH      WIDTH   CONDCTNC.   GRADIENT

   1   13    1     1     1    1.0000E+05 -6.1076E+03   1.0611E+05  0.000E+00  0.000E+00  0.000E+00  4.84087E+01  1.473E-01  2.000E+01  2.000E+04 -3.054E-01
   1   13    2     1     2    1.0611E+05 -7.5776E+03   1.1369E+05  0.000E+00  0.000E+00  0.000E+00  4.79372E+01  1.531E-01  2.000E+01  2.000E+04 -3.789E-01
   1   14    3     1     3    1.1369E+05 -2.1945E+03   1.1588E+05  0.000E+00  0.000E+00  0.000E+00  4.74639E+01  1.571E-01  2.000E+01  2.000E+04 -1.097E-01
   1   15    4     1     4    1.1588E+05 -2.2616E+03   1.1814E+05  0.000E+00  0.000E+00  0.000E+00  4.69885E+01  1.589E-01  2.000E+01  2.000E+04 -1.131E-01
   1   16    5     1     5    1.1814E+05 -7.0832E+03   1.2522E+05  0.000E+00  0.000E+00  0.000E+00  4.65150E+01  1.627E-01  2.000E+01  2.000E+04 -3.542E-01
   1   16    6     1     6    1.2522E+05 -4.2121E+03   1.2944E+05  0.000E+00  0.000E+00  0.000E+00  4.60422E+01  1.672E-01  2.000E+01  2.000E+04 -2.106E-01
   1   16    7     1     7    1.2944E+05 -4.0112E+03   1.3345E+05  0.000E+00  0.000E+00  0.000E+00  4.55682E+01  1.704E-01  2.000E+01  2.000E+04 -2.006E-01
   1   16    8     1     8    1.3345E+05 -3.9123E+03   1.3736E+05  0.000E+00  0.000E+00  0.000E+00  4.50940E+01  1.735E-01  2.000E+01  2.000E+04 -1.956E-01
   1   16    9     1     9    1.3736E+05 -3.8102E+03   1.4117E+05  0.000E+00  0.000E+00  0.000E+00  4.46196E+01  1.765E-01  2.000E+01  2.000E+04 -1.905E-01
   1   16   10     1    10    1.4117E+05 -3.6623E+03   1.4483E+05  0.000E+00  0.000E+00  0.000E+00  4.41452E+01  1.793E-01  2.000E+01  2.000E+04 -1.831E-01
   1   16   11     1    11    1.4483E+05 -3.4514E+03   1.4828E+05  0.000E+00  0.000E+00  0.000E+00  4.36706E+01  1.819E-01  2.000E+01  2.000E+04 -1.726E-01
   1   16   12     1    12    1.4828E+05 -5.2889E+03   1.5357E+05  0.000E+00  0.000E+00  0.000E+00  4.31965E+01  1.852E-01  2.000E+01  2.000E+04 -2.644E-01
   1   15   13     1    13    1.5357E+05 -5.8125E+03   1.5939E+05  0.000E+00  0.000E+00  0.000E+00  4.27233E+01  1.892E-01  2.000E+01  2.000E+04 -2.906E-01
   1   14   14     1    14    1.5939E+05 -6.4121E+03   1.6580E+05  0.000E+00  0.000E+00  0.000E+00  4.22505E+01  1.936E-01  2.000E+01  2.000E+04 -3.206E-01
   1   13   15     1    15    1.6580E+05 -7.0925E+03   1.7289E+05  0.000E+00  0.000E+00  0.000E+00  4.17780E+01  1.984E-01  2.000E+01  2.000E+04 -3.546E-01
   1   12   16     1    16    1.7289E+05 -8.2036E+03   1.8109E+05  0.000E+00  0.000E+00  0.000E+00  4.13060E+01  2.037E-01  2.000E+01  2.000E+04 -4.102E-01
   1   12   17     1    17    1.8109E+05 -5.6250E+03   1.8672E+05  0.000E+00  0.000E+00  0.000E+00  4.08335E+01  2.085E-01  2.000E+01  2.000E+04 -2.812E-01
   1   12   18     1    18    1.8672E+05 -5.4723E+03   1.9219E+05  0.000E+00  0.000E+00  0.000E+00  4.03600E+01  2.122E-01  2.000E+01  2.000E+04 -2.736E-01
   1   12   19     1    19    1.9219E+05 -6.8944E+03   1.9909E+05  0.000E+00  0.000E+00  0.000E+00  3.98868E+01  2.164E-01  2.000E+01  2.000E+04 -3.447E-01
   1   13   20     1    20    1.9909E+05 -6.0807E+03   2.0517E+05  0.000E+00  0.000E+00  0.000E+00  3.94138E+01  2.206E-01  2.000E+01  2.000E+04 -3.040E-01
   1   14   21     1    21    2.0517E+05 -5.8107E+03   2.1098E+05  0.000E+00  0.000E+00  0.000E+00  3.89404E+01  2.245E-01  2.000E+01  2.000E+04 -2.905E-01
   1   14   22     1    22    2.1098E+05  3.7316E+03   2.0725E+05  0.000E+00  0.000E+00  0.000E+00  3.84638E+01  2.252E-01  2.000E+01  2.000E+04  1.866E-01
   1    9   30     2     1    5.0000E+04 -4.6857E+03   5.4686E+04  0.000E+00  0.000E+00  0.000E+00  4.02441E+01  1.191E-01  2.000E+01  2.000E+04 -2.343E-01
   1    9   29     2     2    5.4686E+04 -4.9507E+03   5.9636E+04  0.000E+00  0.000E+00  0.000E+00  4.00006E+01  1.256E-01  2.000E+01  2.000E+04 -2.475E-01
   1    9   28     2     3    5.9636E+04 -5.1569E+03   6.4793E+04  0.000E+00  0.000E+00  0.000E+00  3.97571E+01  1.321E-01  2.000E+01  2.000E+04 -2.578E-01
   1    9   27     2     4    6.4793E+04 -7.5579E+03   7.2351E+04  0.000E+00  0.000E+00  0.000E+00  3.95150E+01  1.400E-01  2.000E+01  2.000E+04 -3.779E-01
   1   10   26     2     5    7.2351E+04 -6.6534E+03   7.9005E+04  0.000E+00  0.000E+00  0.000E+00  3.92736E+01  1.486E-01  2.000E+01  2.000E+04 -3.327E-01
   1   11   25     2     6    7.9005E+04 -6.1679E+03   8.5172E+04  0.000E+00  0.000E+00  0.000E+00  3.90310E+01  1.560E-01  2.000E+01  2.000E+04 -3.084E-01
   1   12   24     2     7    8.5172E+04 -5.7485E+03   9.0921E+04  0.000E+00  0.000E+00  0.000E+00  3.87877E+01  1.627E-01  2.000E+01  2.000E+04 -2.874E-01
   1   13   23     2     8    9.0921E+04 -1.5753E+03   9.2496E+04  0.000E+00  0.000E+00  0.000E+00  3.85417E+01  1.667E-01  2.000E+01  2.000E+04 -7.876E-02
   1   14   22     2     9    9.2496E+04  3.0356E+02   9.2193E+04  0.000E+00  0.000E+00  0.000E+00  3.82924E+01  1.674E-01  2.000E+01  2.000E+04  1.518E-02
   1   14   22     3     1    2.9944E+05 -9.7530E+03   3.0919E+05  0.000E+00  0.000E+00  0.000E+00  3.77896E+01  2.340E-01  2.000E+01  2.000E+04 -4.876E-01
   1   15   23     3     2    3.0919E+05 -1.9304E+03   3.1112E+05  0.000E+00  0.000E+00  0.000E+00  3.69034E+01  2.367E-01  2.000E+01  2.000E+04 -9.652E-02
   1   15   24     3     3    3.1112E+05 -1.5211E+03   3.1264E+05  0.000E+00  0.000E+00  0.000E+00  3.60153E+01  2.375E-01  2.000E+01  2.000E+04 -7.606E-02
   1   15   25     3     4    3.1264E+05 -1.5755E+03   3.1422E+05  0.000E+00  0.000E+00  0.000E+00  3.51271E+01  2.382E-01  2.000E+01  2.000E+04 -7.877E-02
   1   15   26     3     5    3.1422E+05 -1.8811E+03   3.1610E+05  0.000E+00  0.000E+00  0.000E+00  3.42390E+01  2.390E-01  2.000E+01  2.000E+04 -9.405E-02
   1   16   27     3     6    3.1610E+05 -2.1616E+03   3.1826E+05  0.000E+00  0.000E+00  0.000E+00  3.33510E+01  2.399E-01  2.000E+01  2.000E+04 -1.081E-01
   1   17   28     3     7    3.1826E+05 -6.5658E+03   3.2483E+05  0.000E+00  0.000E+00  0.000E+00  3.24641E+01  2.419E-01  2.000E+01  2.000E+04 -3.283E-01
   1   18   29     3     8    3.2483E+05 -7.9615E+03   3.3279E+05  0.000E+00  0.000E+00  0.000E+00  3.15785E+01  2.452E-01  2.000E+01  2.000E+04 -3.981E-01
   1   18   30     3     9    3.3279E+05 -7.1559E+03   3.3994E+05  0.000E+00  0.000E+00  0.000E+00  3.06930E+01  2.485E-01  2.000E+01  2.000E+04 -3.578E-01



1
              HEAD IN LAYER   1 AT END OF TIME STEP   1 IN STRESS PERIOD    1
  ---------------------------------------------------------------------------

          1      2      3      4      5      6      7      8      9     10
         11     12     13     14     15     16     17     18     19     20
         21     22     23     24     25     26     27     28     29     30
 .........................................................................
   1  ****** ****** ****** ****** ****** ****** ****** ****** ****** ******
      ****** ****** ****** ****** ****** ****** ****** ****** ****** ******
      ****** ****** ****** ****** ****** ****** ****** ****** ****** ******
   2  ****** ****** ****** ****** ****** ****** ****** ****** ****** ******
      ****** ****** ****** ****** ****** ****** ****** ****** ****** ******
      ****** ****** ****** ****** ****** ****** ****** ****** ****** ******
   3  ****** ****** ****** ****** ****** ****** ****** ****** ****** ******
      ****** ****** ****** ****** ****** ****** ****** ****** ****** ******
      ****** ****** ****** ****** ****** ****** ****** ****** ****** ******
   4  ****** ****** ****** ****** ****** ****** ****** ****** ****** ******
      ****** ****** ****** ****** ****** ****** ****** ****** ****** ******
      ****** ****** ****** ****** ****** ****** ****** ****** ****** ******
   5  ****** ****** ****** ****** ****** ****** ****** ****** ****** ******
      ****** ****** ****** ****** ****** ****** ****** ****** ****** ******
      ****** ****** ****** ****** ****** ****** ****** ****** ****** ******
   6  ****** ****** ****** ****** ****** ****** ****** ****** ****** ******
      ****** ****** ****** ****** ****** ****** ****** ****** ****** ******
      ****** ****** ****** ****** ****** ****** ****** ****** ****** ******
   7  ****** ****** ****** ****** ****** ****** ****** ****** ****** ******
      ****** ****** ****** ****** ****** ****** ****** ****** ****** ******
      ****** ****** ****** ****** ****** ****** ****** ****** ****** ******
   8  ****** ****** ****** ****** ****** ****** ****** ****** ****** ******
      ****** ****** ****** ****** ****** ****** ****** ****** ****** ******
      ****** ****** ****** ****** ****** ****** ****** ****** ****** ******
   9  ****** ****** ****** ****** ****** ****** ****** ****** ****** ******
      ****** ****** ****** ****** ****** ****** ****** ****** ****** ******
      ****** ****** ****** ****** ****** ****** ****** ****** ****** ******
  10  ****** ****** ****** ****** ****** ****** ****** ****** ****** ******
      ****** ****** ****** ****** ****** ****** ****** ****** ****** ******
      ****** ****** ****** ****** ****** ****** ****** ****** ****** ******
  11  ****** ****** ****** ****** ****** ****** ****** ****** ****** ******
      ****** ****** ****** ****** ****** ****** ****** ****** ****** ******
      ****** ****** ****** ****** ****** ****** ****** ****** ****** ******
  12  ****** ****** ****** ****** ****** ****** ****** ****** ****** ******
      ****** ****** ****** ****** ****** ****** ****** ****** ****** ******
      ****** ****** ****** ****** ****** ****** ****** ****** ****** ******
  13  ****** ****** ****** ****** ****** ****** ****** ****** ****** ******
      ****** ****** ****** ****** ****** ****** ****** ****** ****** ******
      ****** ****** ****** ****** ****** ****** ****** ****** ****** ******
  14  ****** ****** ****** ****** ****** ****** ****** ****** ****** ******
      ****** ****** ****** ****** ****** ****** ****** ****** ****** ******
      ****** ****** ****** ****** ****** ****** ****** ****** ****** ******
  15  ****** ****** ****** ****** ****** ****** ****** ****** ****** ******
      ****** ****** ****** ****** ****** ****** ****** ****** ****** ******
      ****** ****** ****** ****** ****** ****** ****** ****** ****** ******
  16  ****** ****** ****** ****** ****** ****** ****** ****** ****** ******
      ****** ****** ****** ****** ****** ****** ****** ****** ****** ******
      ****** ****** ****** ****** ****** ****** ****** ****** ****** ******
  17  ****** ****** ****** ****** ****** ****** ****** ****** ****** ******
      ****** ****** ****** ****** ****** ****** ****** ****** ****** ******
      ****** ****** ****** ****** ****** ****** ****** ****** ****** ******
  18  ****** ****** ****** ****** ****** ****** ****** ****** ****** ******
      ****** ****** ****** ****** ****** ****** ****** ****** ****** ******
      ****** ****** ****** ****** ****** ****** ****** ****** ****** ******
  19  ****** ****** ****** ****** ****** ****** ****** ****** ****** ******
      ****** ****** ****** ****** ****** ****** ****** ****** ****** ******
      ****** ****** ****** ****** ****** ****** ****** ****** ****** ******
  20  ****** ****** ****** ****** ****** ****** ****** ****** ****** ******
      ****** ****** ****** ****** ****** ****** ****** ****** ****** ******
      ****** ****** ****** ****** ****** ****** ****** ****** ****** ******
  21  ****** ****** ****** ****** ****** ****** ****** ****** ****** ******
      ****** ****** ****** ****** ****** ****** ****** ****** ****** ******
      ****** ****** ****** ****** ****** ****** ****** ****** ****** ******
  22  ****** ****** ****** ****** ****** ****** ****** ****** ****** ******
      ****** ****** ****** ****** ****** ****** ****** ****** ****** ******
      ****** ****** ****** ****** ****** ****** ****** ****** ****** ******
  23  ****** ****** ****** ****** ****** ****** ****** ****** ****** ******
      ****** ****** ****** ****** ****** ****** ****** ****** ****** ******
      ****** ****** ****** ****** ****** ****** ****** ****** ****** ******
  24  ****** ****** ****** ****** ****** ****** ****** ****** ****** ******
      ****** ****** ****** ****** ****** ****** ****** ****** ****** ******
      ****** ****** ****** ****** ****** ****** ****** ****** ****** ******
  25  ****** ****** ****** ****** ****** ****** ****** ****** ****** ******
      ****** ****** ****** ****** ****** ****** ****** ****** ****** ******
      ****** ****** ****** ****** ****** ****** ****** ****** ****** ******

 HEAD WILL BE SAVED ON UNIT   51 AT END OF TIME STEP    1, STRESS PERIOD    1
1
  VOLUMETRIC BUDGET FOR ENTIRE MODEL AT END OF TIME STEP    1, STRESS PERIOD   1
  ------------------------------------------------------------------------------

     CUMULATIVE VOLUMES      L**3       RATES FOR THIS TIME STEP      L**3/T
     ------------------                 ------------------------

           IN:                                      IN:
           ---                                      ---
             STORAGE =    18254995.8558               STORAGE =      198423.8680
       CONSTANT HEAD =     1209753.0005         CONSTANT HEAD =       13149.4891
               WELLS =           0.0000                 WELLS =           0.0000
            RECHARGE =     1269600.0000              RECHARGE =       13800.0000
      STREAM LEAKAGE =      371236.2410        STREAM LEAKAGE =        4035.1765

            TOTAL IN =    21105585.0973              TOTAL IN =      229408.5337

          OUT:                                     OUT:
          ----                                     ----
             STORAGE =           0.0000               STORAGE =           0.0000
       CONSTANT HEAD =           0.0000         CONSTANT HEAD =           0.0000
               WELLS =     3259529.2526                 WELLS =       35429.6658
            RECHARGE =           0.0000              RECHARGE =           0.0000
      STREAM LEAKAGE =    17846056.1457        STREAM LEAKAGE =      193978.8711

           TOTAL OUT =    21105585.3984             TOTAL OUT =      229408.5369

            IN - OUT =          -0.3011              IN - OUT =      -3.2729E-03

 PERCENT DISCREPANCY =          -0.00     PERCENT DISCREPANCY =          -0.00






         TIME SUMMARY AT END OF TIME STEP    1 IN STRESS PERIOD    1
                    SECONDS     MINUTES      HOURS       DAYS        YEARS
                    -----------------------------------------------------------
   TIME STEP LENGTH 7.94880E+06 1.32480E+05  2208.0      92.000     0.25188    
 STRESS PERIOD TIME 7.94880E+06 1.32480E+05  2208.0      92.000     0.25188    
         TOTAL TIME 7.94880E+06 1.32480E+05  2208.0      92.000     0.25188    
1
1
                            STRESS PERIOD NO.    2, LENGTH =   91.00000    
                            -----------------------------------------------

                              NUMBER OF TIME STEPS =     1

                               MULTIPLIER FOR DELT =     1.500

                            INITIAL TIME STEP SIZE =   91.00000    

 WELL NO.  LAYER   ROW   COL   STRESS RATE         
 --------------------------------------------------
      1      1     16     16      -9666.    
      2      1      6     22      -5938.    
      3      1     19     13      -8939.    
      4      1      6     21     -0.1089E+05

      4 WELLS

                 RECHARGE =  2.000000E-03

 REUSING STREAM SEGMENT DATA FROM LAST STRESS PERIOD
 
 SOLVING FOR HEAD 


     7 CALLS TO PCG ROUTINE FOR TIME STEP   1 IN STRESS PERIOD    2
    27 TOTAL ITERATIONS

 OUTPUT CONTROL FOR STRESS PERIOD    2   TIME STEP    1
    SAVE BUDGET
    SAVE HEAD FOR ALL LAYERS
    PRINT HEAD FOR ALL LAYERS
 UBDSV2 SAVING "STREAMFLOW OUT  " ON UNIT  50 AT TIME STEP  1, STRESS PERIOD   2



 STREAM LISTING     PERIOD      2   STEP        1

 LAYER ROW COL. STREAM  RCH.  FLOW INTO     FLOW TO   FLOW OUT OF   OVRLND.     DIRECT     STREAM       STREAM     STREAM     STREAM   STREAMBED  STREAMBED
                SEG.NO.  NO.  STRM. RCH.    AQUIFER    STRM. RCH.    RUNOFF     PRECIP       ET          HEAD       DEPTH      WIDTH   CONDCTNC.   GRADIENT

   1   13    1     1     1    1.0000E+05 -3.9729E+03   1.0397E+05  0.000E+00  0.000E+00  0.000E+00  4.84077E+01  1.464E-01  2.000E+01  2.000E+04 -1.986E-01
   1   13    2     1     2    1.0397E+05 -5.2360E+03   1.0921E+05  0.000E+00  0.000E+00  0.000E+00  4.79344E+01  1.503E-01  2.000E+01  2.000E+04 -2.618E-01
   1   14    3     1     3    1.0921E+05 -1.1063E+03   1.1032E+05  0.000E+00  0.000E+00  0.000E+00  4.74598E+01  1.530E-01  2.000E+01  2.000E+04 -5.531E-02
   1   15    4     1     4    1.1032E+05 -1.1259E+03   1.1144E+05  0.000E+00  0.000E+00  0.000E+00  4.69834E+01  1.539E-01  2.000E+01  2.000E+04 -5.629E-02
   1   16    5     1     5    1.1144E+05 -4.0599E+03   1.1550E+05  0.000E+00  0.000E+00  0.000E+00  4.65083E+01  1.560E-01  2.000E+01  2.000E+04 -2.030E-01
   1   16    6     1     6    1.1550E+05 -2.3491E+03   1.1785E+05  0.000E+00  0.000E+00  0.000E+00  4.60337E+01  1.587E-01  2.000E+01  2.000E+04 -1.175E-01
   1   16    7     1     7    1.1785E+05 -2.2056E+03   1.2006E+05  0.000E+00  0.000E+00  0.000E+00  4.55583E+01  1.605E-01  2.000E+01  2.000E+04 -1.103E-01
   1   16    8     1     8    1.2006E+05 -2.0977E+03   1.2215E+05  0.000E+00  0.000E+00  0.000E+00  4.50827E+01  1.623E-01  2.000E+01  2.000E+04 -1.049E-01
   1   16    9     1     9    1.2215E+05 -1.9577E+03   1.2411E+05  0.000E+00  0.000E+00  0.000E+00  4.46071E+01  1.639E-01  2.000E+01  2.000E+04 -9.789E-02
   1   16   10     1    10    1.2411E+05 -1.7509E+03   1.2586E+05  0.000E+00  0.000E+00  0.000E+00  4.41313E+01  1.654E-01  2.000E+01  2.000E+04 -8.755E-02
   1   16   11     1    11    1.2586E+05 -1.4561E+03   1.2732E+05  0.000E+00  0.000E+00  0.000E+00  4.36553E+01  1.666E-01  2.000E+01  2.000E+04 -7.280E-02
   1   16   12     1    12    1.2732E+05 -1.9374E+03   1.2926E+05  0.000E+00  0.000E+00  0.000E+00  4.31793E+01  1.680E-01  2.000E+01  2.000E+04 -9.687E-02
   1   15   13     1    13    1.2926E+05 -2.2069E+03   1.3146E+05  0.000E+00  0.000E+00  0.000E+00  4.27037E+01  1.696E-01  2.000E+01  2.000E+04 -1.103E-01
   1   14   14     1    14    1.3146E+05 -2.7337E+03   1.3420E+05  0.000E+00  0.000E+00  0.000E+00  4.22283E+01  1.715E-01  2.000E+01  2.000E+04 -1.367E-01
   1   13   15     1    15    1.3420E+05 -3.4733E+03   1.3767E+05  0.000E+00  0.000E+00  0.000E+00  4.17535E+01  1.739E-01  2.000E+01  2.000E+04 -1.737E-01
   1   12   16     1    16    1.3767E+05 -4.8128E+03   1.4248E+05  0.000E+00  0.000E+00  0.000E+00  4.12793E+01  1.771E-01  2.000E+01  2.000E+04 -2.406E-01
   1   12   17     1    17    1.4248E+05 -2.8854E+03   1.4537E+05  0.000E+00  0.000E+00  0.000E+00  4.08050E+01  1.800E-01  2.000E+01  2.000E+04 -1.443E-01
   1   12   18     1    18    1.4537E+05 -2.7093E+03   1.4808E+05  0.000E+00  0.000E+00  0.000E+00  4.03298E+01  1.821E-01  2.000E+01  2.000E+04 -1.355E-01
   1   12   19     1    19    1.4808E+05 -3.4184E+03   1.5150E+05  0.000E+00  0.000E+00  0.000E+00  3.98548E+01  1.843E-01  2.000E+01  2.000E+04 -1.709E-01
   1   13   20     1    20    1.5150E+05 -2.6704E+03   1.5417E+05  0.000E+00  0.000E+00  0.000E+00  3.93798E+01  1.866E-01  2.000E+01  2.000E+04 -1.335E-01
   1   14   21     1    21    1.5417E+05 -2.8195E+03   1.5699E+05  0.000E+00  0.000E+00  0.000E+00  3.89045E+01  1.886E-01  2.000E+01  2.000E+04 -1.410E-01
   1   14   22     1    22    1.5699E+05  4.5384E+03   1.5245E+05  0.000E+00  0.000E+00  0.000E+00  3.84266E+01  1.880E-01  2.000E+01  2.000E+04  2.269E-01
   1    9   30     2     1    5.0000E+04 -1.8439E+03   5.1844E+04  0.000E+00  0.000E+00  0.000E+00  4.02421E+01  1.171E-01  2.000E+01  2.000E+04 -9.219E-02
   1    9   29     2     2    5.1844E+04 -2.1088E+03   5.3953E+04  0.000E+00  0.000E+00  0.000E+00  3.99948E+01  1.198E-01  2.000E+01  2.000E+04 -1.054E-01
   1    9   28     2     3    5.3953E+04 -2.2975E+03   5.6250E+04  0.000E+00  0.000E+00  0.000E+00  3.97478E+01  1.228E-01  2.000E+01  2.000E+04 -1.149E-01
   1    9   27     2     4    5.6250E+04 -3.7163E+03   5.9966E+04  0.000E+00  0.000E+00  0.000E+00  3.95018E+01  1.268E-01  2.000E+01  2.000E+04 -1.858E-01
   1   10   26     2     5    5.9966E+04 -2.7407E+03   6.2707E+04  0.000E+00  0.000E+00  0.000E+00  3.92560E+01  1.310E-01  2.000E+01  2.000E+04 -1.370E-01
   1   11   25     2     6    6.2707E+04 -2.4497E+03   6.5157E+04  0.000E+00  0.000E+00  0.000E+00  3.90093E+01  1.343E-01  2.000E+01  2.000E+04 -1.225E-01
   1   12   24     2     7    6.5157E+04 -2.4137E+03   6.7571E+04  0.000E+00  0.000E+00  0.000E+00  3.87623E+01  1.373E-01  2.000E+01  2.000E+04 -1.207E-01
   1   13   23     2     8    6.7571E+04 -4.9744E+02   6.8068E+04  0.000E+00  0.000E+00  0.000E+00  3.85141E+01  1.391E-01  2.000E+01  2.000E+04 -2.487E-02
   1   14   22     2     9    6.8068E+04  1.2793E+03   6.6789E+04  0.000E+00  0.000E+00  0.000E+00  3.82636E+01  1.386E-01  2.000E+01  2.000E+04  6.397E-02
   1   14   22     3     1    2.1924E+05 -8.9903E+03   2.2823E+05  0.000E+00  0.000E+00  0.000E+00  3.77502E+01  1.946E-01  2.000E+01  2.000E+04 -4.495E-01
   1   15   23     3     2    2.2823E+05 -9.5546E+02   2.2918E+05  0.000E+00  0.000E+00  0.000E+00  3.68638E+01  1.972E-01  2.000E+01  2.000E+04 -4.777E-02
   1   15   24     3     3    2.2918E+05 -6.4665E+02   2.2983E+05  0.000E+00  0.000E+00  0.000E+00  3.59754E+01  1.976E-01  2.000E+01  2.000E+04 -3.233E-02
   1   15   25     3     4    2.2983E+05 -6.6178E+02   2.3049E+05  0.000E+00  0.000E+00  0.000E+00  3.50868E+01  1.979E-01  2.000E+01  2.000E+04 -3.309E-02
   1   15   26     3     5    2.3049E+05 -7.6833E+02   2.3126E+05  0.000E+00  0.000E+00  0.000E+00  3.41983E+01  1.983E-01  2.000E+01  2.000E+04 -3.842E-02
   1   16   27     3     6    2.3126E+05 -8.9074E+02   2.3215E+05  0.000E+00  0.000E+00  0.000E+00  3.33098E+01  1.987E-01  2.000E+01  2.000E+04 -4.454E-02
   1   17   28     3     7    2.3215E+05 -3.2231E+03   2.3537E+05  0.000E+00  0.000E+00  0.000E+00  3.24220E+01  1.998E-01  2.000E+01  2.000E+04 -1.612E-01
   1   18   29     3     8    2.3537E+05 -4.9757E+03   2.4035E+05  0.000E+00  0.000E+00  0.000E+00  3.15352E+01  2.019E-01  2.000E+01  2.000E+04 -2.488E-01
   1   18   30     3     9    2.4035E+05 -4.6382E+03   2.4499E+05  0.000E+00  0.000E+00  0.000E+00  3.06488E+01  2.043E-01  2.000E+01  2.000E+04 -2.319E-01



1
              HEAD IN LAYER   1 AT END OF TIME STEP   1 IN STRESS PERIOD    2
  ---------------------------------------------------------------------------

          1      2      3      4      5      6      7      8      9     10
         11     12     13     14     15     16     17     18     19     20
         21     22     23     24     25     26     27     28     29     30
 .........................................................................
   1  ****** ****** ****** ****** ****** ****** ****** ****** ****** ******
      ****** ****** ****** ****** ****** ****** ****** ****** ****** ******
      ****** ****** ****** ****** ****** ****** ****** ****** ****** ******
   2  ****** ****** ****** ****** ****** ****** ****** ****** ****** ******
      ****** ****** ****** ****** ****** ****** ****** ****** ****** ******
      ****** ****** ****** ****** ****** ****** ****** ****** ****** ******
   3  ****** ****** ****** ****** ****** ****** ****** ****** ****** ******
      ****** ****** ****** ****** ****** ****** ****** ****** ****** ******
      ****** ****** ****** ****** ****** ****** ****** ****** ****** ******
   4  ****** ****** ****** ****** ****** ****** ****** ****** ****** ******
      ****** ****** ****** ****** ****** ****** ****** ****** ****** ******
      ****** ****** ****** ****** ****** ****** ****** ****** ****** ******
   5  ****** ****** ****** ****** ****** ****** ****** ****** ****** ******
      ****** ****** ****** ****** ****** ****** ****** ****** ****** ******
      ****** ****** ****** ****** ****** ****** ****** ****** ****** ******
   6  ****** ****** ****** ****** ****** ****** ****** ****** ****** ******
      ****** ****** ****** ****** ****** ****** ****** ****** ****** ******
      ****** ****** ****** ****** ****** ****** ****** ****** ****** ******
   7  ****** ****** ****** ****** ****** ****** ****** ****** ****** ******
      ****** ****** ****** ****** ****** ****** ****** ****** ****** ******
      ****** ****** ****** ****** ****** ****** ****** ****** ****** ******
   8  ****** ****** ****** ****** ****** ****** ****** ****** ****** ******
      ****** ****** ****** ****** ****** ****** ****** ****** ****** ******
      ****** ****** ****** ****** ****** ****** ****** ****** ****** ******
   9  ****** ****** ****** ****** ****** ****** ****** ****** ****** ******
      ****** ****** ****** ****** ****** ****** ****** ****** ****** ******
      ****** ****** ****** ****** ****** ****** ****** ****** ****** ******
  10  ****** ****** ****** ****** ****** ****** ****** ****** ****** ******
      ****** ****** ****** ****** ****** ****** ****** ****** ****** ******
      ****** ****** ****** ****** ****** ****** ****** ****** ****** ******
  11  ****** ****** ****** ****** ****** ****** ****** ****** ****** ******
      ****** ****** ****** ****** ****** ****** ****** ****** ****** ******
      ****** ****** ****** ****** ****** ****** ****** ****** ****** ******
  12  ****** ****** ****** ****** ****** ****** ****** ****** ****** ******
      ****** ****** ****** ****** ****** ****** ****** ****** ****** ******
      ****** ****** ****** ****** ****** ****** ****** ****** ****** ******
  13  ****** ****** ****** ****** ****** ****** ****** ****** ****** ******
      ****** ****** ****** ****** ****** ****** ****** ****** ****** ******
      ****** ****** ****** ****** ****** ****** ****** ****** ****** ******
  14  ****** ****** ****** ****** ****** ****** ****** ****** ****** ******
      ****** ****** ****** ****** ****** ****** ****** ****** ****** ******
      ****** ****** ****** ****** ****** ****** ****** ****** ****** ******
  15  ****** ****** ****** ****** ****** ****** ****** ****** ****** ******
      ****** ****** ****** ****** ****** ****** ****** ****** ****** ******
      ****** ****** ****** ****** ****** ****** ****** ****** ****** ******
  16  ****** ****** ****** ****** ****** ****** ****** ****** ****** ******
      ****** ****** ****** ****** ****** ****** ****** ****** ****** ******
      ****** ****** ****** ****** ****** ****** ****** ****** ****** ******
  17  ****** ****** ****** ****** ****** ****** ****** ****** ****** ******
      ****** ****** ****** ****** ****** ****** ****** ****** ****** ******
      ****** ****** ****** ****** ****** ****** ****** ****** ****** ******
  18  ****** ****** ****** ****** ****** ****** ****** ****** ****** ******
      ****** ****** ****** ****** ****** ****** ****** ****** ****** ******
      ****** ****** ****** ****** ****** ****** ****** ****** ****** ******
  19  ****** ****** ****** ****** ****** ****** ****** ****** ****** ******
      ****** ****** ****** ****** ****** ****** ****** ****** ****** ******
      ****** ****** ****** ****** ****** ****** ****** ****** ****** ******
  20  ****** ****** ****** ****** ****** ****** ****** ****** ****** ******
      ****** ****** ****** ****** ****** ****** ****** ****** ****** ******
      ****** ****** ****** ****** ****** ****** ****** ****** ****** ******
  21  ****** ****** ****** ****** ****** ****** ****** ****** ****** ******
      ****** ****** ****** ****** ****** ****** ****** ****** ****** ******
      ****** ****** ****** ****** ****** ****** ****** ****** ****** ******
  22  ****** ****** ****** ****** ****** ****** ****** ****** ****** ******
      ****** ****** ****** ****** ****** ****** ****** ****** ****** ******
      ****** ****** ****** ****** ****** ****** ****** ****** ****** ******
  23  ****** ****** ****** ****** ****** ****** ****** ****** ****** ******
      ****** ****** ****** ****** ****** ****** ****** ****** ****** ******
      ****** ****** ****** ****** ****** ****** ****** ****** ****** ******
  24  ****** ****** ****** ****** ****** ****** ****** ****** ****** ******
      ****** ****** ****** ****** ****** ****** ****** ****** ****** ******
      ****** ****** ****** ****** ****** ****** ****** ****** ****** ******
  25  ****** ****** ****** ****** ****** ****** ****** ****** ****** ******
      ****** ****** ****** ****** ****** ****** ****** ****** ****** ******
      ****** ****** ****** ****** ****** ****** ****** ****** ****** ******

 HEAD WILL BE SAVED ON UNIT   51 AT END OF TIME STEP    1, STRESS PERIOD    2
1
  VOLUMETRIC BUDGET FOR ENTIRE MODEL AT END OF TIME STEP    1, STRESS PERIOD   2
  ------------------------------------------------------------------------------

     CUMULATIVE VOLUMES      L**3       RATES FOR THIS TIME STEP      L**3/T
     ------------------                 ------------------------

           IN:                                      IN:
           ---                                      ---
             STORAGE =    23442140.4586               STORAGE =       57001.5890
       CONSTANT HEAD =     2867226.5264         CONSTANT HEAD =       18213.9948
               WELLS =           0.0000                 WELLS =           0.0000
            RECHARGE =     6292800.0000              RECHARGE =       55200.0000
      STREAM LEAKAGE =      900648.1111        STREAM LEAKAGE =        5817.7129

            TOTAL IN =    33502815.0961              TOTAL IN =      136233.2967

          OUT:                                     OUT:
          ----                                     ----
             STORAGE =           0.0000               STORAGE =           0.0000
       CONSTANT HEAD =           0.0000         CONSTANT HEAD =           0.0000
               WELLS =     6483628.8395                 WELLS =       35429.6658
            RECHARGE =           0.0000              RECHARGE =           0.0000
      STREAM LEAKAGE =    27019187.5345        STREAM LEAKAGE =      100803.6416

           TOTAL OUT =    33502816.3740             TOTAL OUT =      136233.3074

            IN - OUT =          -1.2779              IN - OUT =      -1.0734E-02

 PERCENT DISCREPANCY =          -0.00     PERCENT DISCREPANCY =          -0.00






         TIME SUMMARY AT END OF TIME STEP    1 IN STRESS PERIOD    2
                    SECONDS     MINUTES      HOURS       DAYS        YEARS
                    -----------------------------------------------------------
   TIME STEP LENGTH 7.86240E+06 1.31040E+05  2184.0      91.000     0.24914    
 STRESS PERIOD TIME 7.86240E+06 1.31040E+05  2184.0      91.000     0.24914    
         TOTAL TIME 1.58112E+07 2.63520E+05  4392.0      183.00     0.50103    
1
1
                            STRESS PERIOD NO.    3, LENGTH =   91.00000    
                            -----------------------------------------------

                              NUMBER OF TIME STEPS =     1

                               MULTIPLIER FOR DELT =     1.500

                            INITIAL TIME STEP SIZE =   91.00000    

 WELL NO.  LAYER   ROW   COL   STRESS RATE         
 --------------------------------------------------
      1      1     16     16      -9666.    
      2      1      6     22      -5938.    
      3      1     19     13      -8939.    
      4      1      6     21     -0.1089E+05

      4 WELLS

                 RECHARGE =   0.00000    

 REUSING STREAM SEGMENT DATA FROM LAST STRESS PERIOD
 
 SOLVING FOR HEAD 


     7 CALLS TO PCG ROUTINE FOR TIME STEP   1 IN STRESS PERIOD    3
    27 TOTAL ITERATIONS

 OUTPUT CONTROL FOR STRESS PERIOD    3   TIME STEP    1
    SAVE BUDGET
    SAVE HEAD FOR ALL LAYERS
    PRINT HEAD FOR ALL LAYERS
 UBDSV2 SAVING "STREAMFLOW OUT  " ON UNIT  50 AT TIME STEP  1, STRESS PERIOD   3



 STREAM LISTING     PERIOD      3   STEP        1

 LAYER ROW COL. STREAM  RCH.  FLOW INTO     FLOW TO   FLOW OUT OF   OVRLND.     DIRECT     STREAM       STREAM     STREAM     STREAM   STREAMBED  STREAMBED
                SEG.NO.  NO.  STRM. RCH.    AQUIFER    STRM. RCH.    RUNOFF     PRECIP       ET          HEAD       DEPTH      WIDTH   CONDCTNC.   GRADIENT

   1   13    1     1     1    1.0000E+05 -2.7085E+03   1.0271E+05  0.000E+00  0.000E+00  0.000E+00  4.84072E+01  1.458E-01  2.000E+01  2.000E+04 -1.354E-01
   1   13    2     1     2    1.0271E+05 -3.8185E+03   1.0653E+05  0.000E+00  0.000E+00  0.000E+00  4.79327E+01  1.486E-01  2.000E+01  2.000E+04 -1.909E-01
   1   14    3     1     3    1.0653E+05 -6.4136E+02   1.0717E+05  0.000E+00  0.000E+00  0.000E+00  4.74573E+01  1.505E-01  2.000E+01  2.000E+04 -3.207E-02
   1   15    4     1     4    1.0717E+05 -6.1421E+02   1.0778E+05  0.000E+00  0.000E+00  0.000E+00  4.69806E+01  1.510E-01  2.000E+01  2.000E+04 -3.071E-02
   1   16    5     1     5    1.0778E+05 -2.2067E+03   1.0999E+05  0.000E+00  0.000E+00  0.000E+00  4.65045E+01  1.522E-01  2.000E+01  2.000E+04 -1.103E-01
   1   16    6     1     6    1.0999E+05 -1.3090E+03   1.1130E+05  0.000E+00  0.000E+00  0.000E+00  4.60287E+01  1.537E-01  2.000E+01  2.000E+04 -6.545E-02
   1   16    7     1     7    1.1130E+05 -1.2200E+03   1.1252E+05  0.000E+00  0.000E+00  0.000E+00  4.55525E+01  1.548E-01  2.000E+01  2.000E+04 -6.100E-02
   1   16    8     1     8    1.1252E+05 -1.1239E+03   1.1364E+05  0.000E+00  0.000E+00  0.000E+00  4.50762E+01  1.557E-01  2.000E+01  2.000E+04 -5.620E-02
   1   16    9     1     9    1.1364E+05 -9.8032E+02   1.1462E+05  0.000E+00  0.000E+00  0.000E+00  4.45998E+01  1.566E-01  2.000E+01  2.000E+04 -4.902E-02
   1   16   10     1    10    1.1462E+05 -7.6383E+02   1.1539E+05  0.000E+00  0.000E+00  0.000E+00  4.41232E+01  1.573E-01  2.000E+01  2.000E+04 -3.819E-02
   1   16   11     1    11    1.1539E+05 -4.4867E+02   1.1583E+05  0.000E+00  0.000E+00  0.000E+00  4.36464E+01  1.578E-01  2.000E+01  2.000E+04 -2.243E-02
   1   16   12     1    12    1.1583E+05 -1.6855E+02   1.1600E+05  0.000E+00  0.000E+00  0.000E+00  4.31694E+01  1.581E-01  2.000E+01  2.000E+04 -8.427E-03
   1   15   13     1    13    1.1600E+05 -4.3109E+02   1.1643E+05  0.000E+00  0.000E+00  0.000E+00  4.26924E+01  1.583E-01  2.000E+01  2.000E+04 -2.155E-02
   1   14   14     1    14    1.1643E+05 -9.2179E+02   1.1736E+05  0.000E+00  0.000E+00  0.000E+00  4.22157E+01  1.589E-01  2.000E+01  2.000E+04 -4.609E-02
   1   13   15     1    15    1.1736E+05 -1.6627E+03   1.1902E+05  0.000E+00  0.000E+00  0.000E+00  4.17395E+01  1.599E-01  2.000E+01  2.000E+04 -8.314E-02
   1   12   16     1    16    1.1902E+05 -2.9287E+03   1.2195E+05  0.000E+00  0.000E+00  0.000E+00  4.12640E+01  1.618E-01  2.000E+01  2.000E+04 -1.464E-01
   1   12   17     1    17    1.2195E+05 -1.5050E+03   1.2345E+05  0.000E+00  0.000E+00  0.000E+00  4.07885E+01  1.635E-01  2.000E+01  2.000E+04 -7.525E-02
   1   12   18     1    18    1.2345E+05 -1.3408E+03   1.2479E+05  0.000E+00  0.000E+00  0.000E+00  4.03124E+01  1.647E-01  2.000E+01  2.000E+04 -6.704E-02
   1   12   19     1    19    1.2479E+05 -1.6856E+03   1.2648E+05  0.000E+00  0.000E+00  0.000E+00  3.98363E+01  1.659E-01  2.000E+01  2.000E+04 -8.428E-02
   1   13   20     1    20    1.2648E+05 -1.0988E+03   1.2758E+05  0.000E+00  0.000E+00  0.000E+00  3.93602E+01  1.670E-01  2.000E+01  2.000E+04 -5.494E-02
   1   14   21     1    21    1.2758E+05 -1.2336E+03   1.2881E+05  0.000E+00  0.000E+00  0.000E+00  3.88838E+01  1.679E-01  2.000E+01  2.000E+04 -6.168E-02
   1   14   22     1    22    1.2881E+05  4.9156E+03   1.2390E+05  0.000E+00  0.000E+00  0.000E+00  3.84051E+01  1.664E-01  2.000E+01  2.000E+04  2.458E-01
   1    9   30     2     1    5.0000E+04 -5.7712E+02   5.0577E+04  0.000E+00  0.000E+00  0.000E+00  4.02413E+01  1.163E-01  2.000E+01  2.000E+04 -2.886E-02
   1    9   29     2     2    5.0577E+04 -8.3861E+02   5.1416E+04  0.000E+00  0.000E+00  0.000E+00  3.99922E+01  1.172E-01  2.000E+01  2.000E+04 -4.193E-02
   1    9   28     2     3    5.1416E+04 -1.0009E+03   5.2417E+04  0.000E+00  0.000E+00  0.000E+00  3.97435E+01  1.185E-01  2.000E+01  2.000E+04 -5.005E-02
   1    9   27     2     4    5.2417E+04 -1.8010E+03   5.4218E+04  0.000E+00  0.000E+00  0.000E+00  3.94954E+01  1.204E-01  2.000E+01  2.000E+04 -9.005E-02
   1   10   26     2     5    5.4218E+04 -9.8101E+02   5.5199E+04  0.000E+00  0.000E+00  0.000E+00  3.92473E+01  1.223E-01  2.000E+01  2.000E+04 -4.905E-02
   1   11   25     2     6    5.5199E+04 -8.2003E+02   5.6019E+04  0.000E+00  0.000E+00  0.000E+00  3.89985E+01  1.235E-01  2.000E+01  2.000E+04 -4.100E-02
   1   12   24     2     7    5.6019E+04 -9.5519E+02   5.6974E+04  0.000E+00  0.000E+00  0.000E+00  3.87497E+01  1.247E-01  2.000E+01  2.000E+04 -4.776E-02
   1   13   23     2     8    5.6974E+04 -1.4637E+02   5.7120E+04  0.000E+00  0.000E+00  0.000E+00  3.85004E+01  1.254E-01  2.000E+01  2.000E+04 -7.319E-03
   1   14   22     2     9    5.7120E+04  1.8001E+03   5.5320E+04  0.000E+00  0.000E+00  0.000E+00  3.82493E+01  1.243E-01  2.000E+01  2.000E+04  9.001E-02
   1   14   22     3     1    1.7922E+05 -8.6192E+03   1.8784E+05  0.000E+00  0.000E+00  0.000E+00  3.77283E+01  1.728E-01  2.000E+01  2.000E+04 -4.310E-01
   1   15   23     3     2    1.8784E+05 -5.4655E+02   1.8838E+05  0.000E+00  0.000E+00  0.000E+00  3.68420E+01  1.754E-01  2.000E+01  2.000E+04 -2.733E-02
   1   15   24     3     3    1.8838E+05 -3.1907E+02   1.8870E+05  0.000E+00  0.000E+00  0.000E+00  3.59534E+01  1.756E-01  2.000E+01  2.000E+04 -1.595E-02
   1   15   25     3     4    1.8870E+05 -3.1962E+02   1.8902E+05  0.000E+00  0.000E+00  0.000E+00  3.50647E+01  1.758E-01  2.000E+01  2.000E+04 -1.598E-02
   1   15   26     3     5    1.8902E+05 -3.6287E+02   1.8938E+05  0.000E+00  0.000E+00  0.000E+00  3.41760E+01  1.760E-01  2.000E+01  2.000E+04 -1.814E-02
   1   16   27     3     6    1.8938E+05 -4.2218E+02   1.8981E+05  0.000E+00  0.000E+00  0.000E+00  3.32873E+01  1.762E-01  2.000E+01  2.000E+04 -2.111E-02
   1   17   28     3     7    1.8981E+05 -1.7979E+03   1.9160E+05  0.000E+00  0.000E+00  0.000E+00  3.23990E+01  1.768E-01  2.000E+01  2.000E+04 -8.990E-02
   1   18   29     3     8    1.9160E+05 -3.4281E+03   1.9503E+05  0.000E+00  0.000E+00  0.000E+00  3.15116E+01  1.783E-01  2.000E+01  2.000E+04 -1.714E-01
   1   18   30     3     9    1.9503E+05 -3.4836E+03   1.9852E+05  0.000E+00  0.000E+00  0.000E+00  3.06246E+01  1.802E-01  2.000E+01  2.000E+04 -1.742E-01



1
              HEAD IN LAYER   1 AT END OF TIME STEP   1 IN STRESS PERIOD    3
  ---------------------------------------------------------------------------

          1      2      3      4      5      6      7      8      9     10
         11     12     13     14     15     16     17     18     19     20
         21     22     23     24     25     26     27     28     29     30
 .........................................................................
   1  ****** ****** ****** ****** ****** ****** ****** ****** ****** ******
      ****** ****** ****** ****** ****** ****** ****** ****** ****** ******
      ****** ****** ****** ****** ****** ****** ****** ****** ****** ******
   2  ****** ****** ****** ****** ****** ****** ****** ****** ****** ******
      ****** ****** ****** ****** ****** ****** ****** ****** ****** ******
      ****** ****** ****** ****** ****** ****** ****** ****** ****** ******
   3  ****** ****** ****** ****** ****** ****** ****** ****** ****** ******
      ****** ****** ****** ****** ****** ****** ****** ****** ****** ******
      ****** ****** ****** ****** ****** ****** ****** ****** ****** ******
   4  ****** ****** ****** ****** ****** ****** ****** ****** ****** ******
      ****** ****** ****** ****** ****** ****** ****** ****** ****** ******
      ****** ****** ****** ****** ****** ****** ****** ****** ****** ******
   5  ****** ****** ****** ****** ****** ****** ****** ****** ****** ******
      ****** ****** ****** ****** ****** ****** ****** ****** ****** ******
      ****** ****** ****** ****** ****** ****** ****** ****** ****** ******
   6  ****** ****** ****** ****** ****** ****** ****** ****** ****** ******
      ****** ****** ****** ****** ****** ****** ****** ****** ****** ******
      ****** ****** ****** ****** ****** ****** ****** ****** ****** ******
   7  ****** ****** ****** ****** ****** ****** ****** ****** ****** ******
      ****** ****** ****** ****** ****** ****** ****** ****** ****** ******
      ****** ****** ****** ****** ****** ****** ****** ****** ****** ******
   8  ****** ****** ****** ****** ****** ****** ****** ****** ****** ******
      ****** ****** ****** ****** ****** ****** ****** ****** ****** ******
      ****** ****** ****** ****** ****** ****** ****** ****** ****** ******
   9  ****** ****** ****** ****** ****** ****** ****** ****** ****** ******
      ****** ****** ****** ****** ****** ****** ****** ****** ****** ******
      ****** ****** ****** ****** ****** ****** ****** ****** ****** ******
  10  ****** ****** ****** ****** ****** ****** ****** ****** ****** ******
      ****** ****** ****** ****** ****** ****** ****** ****** ****** ******
      ****** ****** ****** ****** ****** ****** ****** ****** ****** ******
  11  ****** ****** ****** ****** ****** ****** ****** ****** ****** ******
      ****** ****** ****** ****** ****** ****** ****** ****** ****** ******
      ****** ****** ****** ****** ****** ****** ****** ****** ****** ******
  12  ****** ****** ****** ****** ****** ****** ****** ****** ****** ******
      ****** ****** ****** ****** ****** ****** ****** ****** ****** ******
      ****** ****** ****** ****** ****** ****** ****** ****** ****** ******
  13  ****** ****** ****** ****** ****** ****** ****** ****** ****** ******
      ****** ****** ****** ****** ****** ****** ****** ****** ****** ******
      ****** ****** ****** ****** ****** ****** ****** ****** ****** ******
  14  ****** ****** ****** ****** ****** ****** ****** ****** ****** ******
      ****** ****** ****** ****** ****** ****** ****** ****** ****** ******
      ****** ****** ****** ****** ****** ****** ****** ****** ****** ******
  15  ****** ****** ****** ****** ****** ****** ****** ****** ****** ******
      ****** ****** ****** ****** ****** ****** ****** ****** ****** ******
      ****** ****** ****** ****** ****** ****** ****** ****** ****** ******
  16  ****** ****** ****** ****** ****** ****** ****** ****** ****** ******
      ****** ****** ****** ****** ****** ****** ****** ****** ****** ******
      ****** ****** ****** ****** ****** ****** ****** ****** ****** ******
  17  ****** ****** ****** ****** ****** ****** ****** ****** ****** ******
      ****** ****** ****** ****** ****** ****** ****** ****** ****** ******
      ****** ****** ****** ****** ****** ****** ****** ****** ****** ******
  18  ****** ****** ****** ****** ****** ****** ****** ****** ****** ******
      ****** ****** ****** ****** ****** ****** ****** ****** ****** ******
      ****** ****** ****** ****** ****** ****** ****** ****** ****** ******
  19  ****** ****** ****** ****** ****** ****** ****** ****** ****** ******
      ****** ****** ****** ****** ****** ****** ****** ****** ****** ******
      ****** ****** ****** ****** ****** ****** ****** ****** ****** ******
  20  ****** ****** ****** ****** ****** ****** ****** ****** ****** ******
      ****** ****** ****** ****** ****** ****** ****** ****** ****** ******
      ****** ****** ****** ****** ****** ****** ****** ****** ****** ******
  21  ****** ****** ****** ****** ****** ****** ****** ****** ****** ******
      ****** ****** ****** ****** ****** ****** ****** ****** ****** ******
      ****** ****** ****** ****** ****** ****** ****** ****** ****** ******
  22  ****** ****** ****** ****** ****** ****** ****** ****** ****** ******
      ****** ****** ****** ****** ****** ****** ****** ****** ****** ******
      ****** ****** ****** ****** ****** ****** ****** ****** ****** ******
  23  ****** ****** ****** ****** ****** ****** ****** ****** ****** ******
      ****** ****** ****** ****** ****** ****** ****** ****** ****** ******
      ****** ****** ****** ****** ****** ****** ****** ****** ****** ******
  24  ****** ****** ****** ****** ****** ****** ****** ****** ****** ******
      ****** ****** ****** ****** ****** ****** ****** ****** ****** ******
      ****** ****** ****** ****** ****** ****** ****** ****** ****** ******
  25  ****** ****** ****** ****** ****** ****** ****** ****** ****** ******
      ****** ****** ****** ****** ****** ****** ****** ****** ****** ******
      ****** ****** ****** ****** ****** ****** ****** ****** ****** ******

 HEAD WILL BE SAVED ON UNIT   51 AT END OF TIME STEP    1, STRESS PERIOD    3
1
  VOLUMETRIC BUDGET FOR ENTIRE MODEL AT END OF TIME STEP    1, STRESS PERIOD   3
  ------------------------------------------------------------------------------

     CUMULATIVE VOLUMES      L**3       RATES FOR THIS TIME STEP      L**3/T
     ------------------                 ------------------------

           IN:                                      IN:
           ---                                      ---
             STORAGE =    28612725.9339               STORAGE =       56819.6206
       CONSTANT HEAD =     5335634.9353         CONSTANT HEAD =       27125.3671
               WELLS =           0.0000                 WELLS =           0.0000
            RECHARGE =     6292800.0000              RECHARGE =           0.0000
      STREAM LEAKAGE =     1511774.5106        STREAM LEAKAGE =        6715.6747

            TOTAL IN =    41752935.3797              TOTAL IN =       90660.6625

          OUT:                                     OUT:
          ----                                     ----
             STORAGE =           0.0000               STORAGE =           0.0000
       CONSTANT HEAD =           0.0000         CONSTANT HEAD =           0.0000
               WELLS =     9707728.4264                 WELLS =       35429.6658
            RECHARGE =           0.0000              RECHARGE =           0.0000
      STREAM LEAKAGE =    32045208.9468        STREAM LEAKAGE =       55231.0045

           TOTAL OUT =    41752937.3732             TOTAL OUT =       90660.6703

            IN - OUT =          -1.9934              IN - OUT =      -7.8632E-03

 PERCENT DISCREPANCY =          -0.00     PERCENT DISCREPANCY =          -0.00






         TIME SUMMARY AT END OF TIME STEP    1 IN STRESS PERIOD    3
                    SECONDS     MINUTES      HOURS       DAYS        YEARS
                    -----------------------------------------------------------
   TIME STEP LENGTH 7.86240E+06 1.31040E+05  2184.0      91.000     0.24914    
 STRESS PERIOD TIME 7.86240E+06 1.31040E+05  2184.0      91.000     0.24914    
         TOTAL TIME 2.36736E+07 3.94560E+05  6576.0      274.00     0.75017    
1
1
                            STRESS PERIOD NO.    4, LENGTH =   91.00000    
                            -----------------------------------------------

                              NUMBER OF TIME STEPS =     1

                               MULTIPLIER FOR DELT =     1.500

                            INITIAL TIME STEP SIZE =   91.00000    

 WELL NO.  LAYER   ROW   COL   STRESS RATE         
 --------------------------------------------------
      1      1     16     16      -9666.    
      2      1      6     22      -5938.    
      3      1     19     13      -8939.    
      4      1      6     21     -0.1089E+05

      4 WELLS

                 RECHARGE =  1.000000E-03

 REUSING STREAM SEGMENT DATA FROM LAST STRESS PERIOD
 
 SOLVING FOR HEAD 


     6 CALLS TO PCG ROUTINE FOR TIME STEP   1 IN STRESS PERIOD    4
    23 TOTAL ITERATIONS

 OUTPUT CONTROL FOR STRESS PERIOD    4   TIME STEP    1
    SAVE BUDGET
    SAVE HEAD FOR ALL LAYERS
    PRINT HEAD FOR ALL LAYERS
 UBDSV2 SAVING "STREAMFLOW OUT  " ON UNIT  50 AT TIME STEP  1, STRESS PERIOD   4



 STREAM LISTING     PERIOD      4   STEP        1

 LAYER ROW COL. STREAM  RCH.  FLOW INTO     FLOW TO   FLOW OUT OF   OVRLND.     DIRECT     STREAM       STREAM     STREAM     STREAM   STREAMBED  STREAMBED
                SEG.NO.  NO.  STRM. RCH.    AQUIFER    STRM. RCH.    RUNOFF     PRECIP       ET          HEAD       DEPTH      WIDTH   CONDCTNC.   GRADIENT

   1   13    1     1     1    1.0000E+05 -2.4634E+03   1.0246E+05  0.000E+00  0.000E+00  0.000E+00  4.84071E+01  1.457E-01  2.000E+01  2.000E+04 -1.232E-01
   1   13    2     1     2    1.0246E+05 -3.5355E+03   1.0600E+05  0.000E+00  0.000E+00  0.000E+00  4.79324E+01  1.483E-01  2.000E+01  2.000E+04 -1.768E-01
   1   14    3     1     3    1.0600E+05 -6.1035E+02   1.0661E+05  0.000E+00  0.000E+00  0.000E+00  4.74569E+01  1.501E-01  2.000E+01  2.000E+04 -3.052E-02
   1   15    4     1     4    1.0661E+05 -5.7203E+02   1.0718E+05  0.000E+00  0.000E+00  0.000E+00  4.69801E+01  1.506E-01  2.000E+01  2.000E+04 -2.860E-02
   1   16    5     1     5    1.0718E+05 -1.8728E+03   1.0905E+05  0.000E+00  0.000E+00  0.000E+00  4.65039E+01  1.516E-01  2.000E+01  2.000E+04 -9.364E-02
   1   16    6     1     6    1.0905E+05 -1.1421E+03   1.1020E+05  0.000E+00  0.000E+00  0.000E+00  4.60279E+01  1.529E-01  2.000E+01  2.000E+04 -5.710E-02
   1   16    7     1     7    1.1020E+05 -1.0639E+03   1.1126E+05  0.000E+00  0.000E+00  0.000E+00  4.55515E+01  1.538E-01  2.000E+01  2.000E+04 -5.319E-02
   1   16    8     1     8    1.1126E+05 -9.7040E+02   1.1223E+05  0.000E+00  0.000E+00  0.000E+00  4.50751E+01  1.546E-01  2.000E+01  2.000E+04 -4.852E-02
   1   16    9     1     9    1.1223E+05 -8.2730E+02   1.1306E+05  0.000E+00  0.000E+00  0.000E+00  4.45985E+01  1.554E-01  2.000E+01  2.000E+04 -4.136E-02
   1   16   10     1    10    1.1306E+05 -6.1130E+02   1.1367E+05  0.000E+00  0.000E+00  0.000E+00  4.41219E+01  1.560E-01  2.000E+01  2.000E+04 -3.056E-02
   1   16   11     1    11    1.1367E+05 -2.9180E+02   1.1396E+05  0.000E+00  0.000E+00  0.000E+00  4.36450E+01  1.563E-01  2.000E+01  2.000E+04 -1.459E-02
   1   16   12     1    12    1.1396E+05  1.5485E+02   1.1381E+05  0.000E+00  0.000E+00  0.000E+00  4.31678E+01  1.564E-01  2.000E+01  2.000E+04  7.743E-03
   1   15   13     1    13    1.1381E+05 -1.3810E+02   1.1394E+05  0.000E+00  0.000E+00  0.000E+00  4.26905E+01  1.564E-01  2.000E+01  2.000E+04 -6.905E-03
   1   14   14     1    14    1.1394E+05 -6.0910E+02   1.1455E+05  0.000E+00  0.000E+00  0.000E+00  4.22135E+01  1.567E-01  2.000E+01  2.000E+04 -3.045E-02
   1   13   15     1    15    1.1455E+05 -1.3248E+03   1.1588E+05  0.000E+00  0.000E+00  0.000E+00  4.17370E+01  1.575E-01  2.000E+01  2.000E+04 -6.624E-02
   1   12   16     1    16    1.1588E+05 -2.4852E+03   1.1836E+05  0.000E+00  0.000E+00  0.000E+00  4.12613E+01  1.590E-01  2.000E+01  2.000E+04 -1.243E-01
   1   12   17     1    17    1.1836E+05 -1.2290E+03   1.1959E+05  0.000E+00  0.000E+00  0.000E+00  4.07855E+01  1.605E-01  2.000E+01  2.000E+04 -6.145E-02
   1   12   18     1    18    1.1959E+05 -1.0795E+03   1.2067E+05  0.000E+00  0.000E+00  0.000E+00  4.03092E+01  1.615E-01  2.000E+01  2.000E+04 -5.397E-02
   1   12   19     1    19    1.2067E+05 -1.3550E+03   1.2203E+05  0.000E+00  0.000E+00  0.000E+00  3.98329E+01  1.625E-01  2.000E+01  2.000E+04 -6.775E-02
   1   13   20     1    20    1.2203E+05 -8.7955E+02   1.2291E+05  0.000E+00  0.000E+00  0.000E+00  3.93565E+01  1.634E-01  2.000E+01  2.000E+04 -4.398E-02
   1   14   21     1    21    1.2291E+05 -9.5764E+02   1.2386E+05  0.000E+00  0.000E+00  0.000E+00  3.88800E+01  1.641E-01  2.000E+01  2.000E+04 -4.788E-02
   1   14   22     1    22    1.2386E+05  4.9605E+03   1.1890E+05  0.000E+00  0.000E+00  0.000E+00  3.84011E+01  1.625E-01  2.000E+01  2.000E+04  2.480E-01
   1    9   30     2     1    5.0000E+04 -4.5630E+02   5.0456E+04  0.000E+00  0.000E+00  0.000E+00  4.02412E+01  1.162E-01  2.000E+01  2.000E+04 -2.281E-02
   1    9   29     2     2    5.0456E+04 -7.0881E+02   5.1165E+04  0.000E+00  0.000E+00  0.000E+00  3.99920E+01  1.170E-01  2.000E+01  2.000E+04 -3.544E-02
   1    9   28     2     3    5.1165E+04 -8.4562E+02   5.2011E+04  0.000E+00  0.000E+00  0.000E+00  3.97431E+01  1.181E-01  2.000E+01  2.000E+04 -4.228E-02
   1    9   27     2     4    5.2011E+04 -1.4583E+03   5.3469E+04  0.000E+00  0.000E+00  0.000E+00  3.94946E+01  1.196E-01  2.000E+01  2.000E+04 -7.292E-02
   1   10   26     2     5    5.3469E+04 -7.6872E+02   5.4238E+04  0.000E+00  0.000E+00  0.000E+00  3.92461E+01  1.211E-01  2.000E+01  2.000E+04 -3.844E-02
   1   11   25     2     6    5.4238E+04 -6.5636E+02   5.4894E+04  0.000E+00  0.000E+00  0.000E+00  3.89971E+01  1.221E-01  2.000E+01  2.000E+04 -3.282E-02
   1   12   24     2     7    5.4894E+04 -8.1297E+02   5.5707E+04  0.000E+00  0.000E+00  0.000E+00  3.87481E+01  1.231E-01  2.000E+01  2.000E+04 -4.065E-02
   1   13   23     2     8    5.5707E+04 -1.6542E+02   5.5872E+04  0.000E+00  0.000E+00  0.000E+00  3.84987E+01  1.237E-01  2.000E+01  2.000E+04 -8.271E-03
   1   14   22     2     9    5.5872E+04  1.8897E+03   5.3983E+04  0.000E+00  0.000E+00  0.000E+00  3.82476E+01  1.226E-01  2.000E+01  2.000E+04  9.449E-02
   1   14   22     3     1    1.7289E+05 -8.5674E+03   1.8145E+05  0.000E+00  0.000E+00  0.000E+00  3.77247E+01  1.692E-01  2.000E+01  2.000E+04 -4.284E-01
   1   15   23     3     2    1.8145E+05 -5.1533E+02   1.8197E+05  0.000E+00  0.000E+00  0.000E+00  3.68384E+01  1.718E-01  2.000E+01  2.000E+04 -2.577E-02
   1   15   24     3     3    1.8197E+05 -3.1565E+02   1.8228E+05  0.000E+00  0.000E+00  0.000E+00  3.59498E+01  1.720E-01  2.000E+01  2.000E+04 -1.578E-02
   1   15   25     3     4    1.8228E+05 -3.1698E+02   1.8260E+05  0.000E+00  0.000E+00  0.000E+00  3.50611E+01  1.722E-01  2.000E+01  2.000E+04 -1.585E-02
   1   15   26     3     5    1.8260E+05 -3.7091E+02   1.8297E+05  0.000E+00  0.000E+00  0.000E+00  3.41724E+01  1.724E-01  2.000E+01  2.000E+04 -1.855E-02
   1   16   27     3     6    1.8297E+05 -4.2061E+02   1.8339E+05  0.000E+00  0.000E+00  0.000E+00  3.32837E+01  1.726E-01  2.000E+01  2.000E+04 -2.103E-02
   1   17   28     3     7    1.8339E+05 -1.7267E+03   1.8512E+05  0.000E+00  0.000E+00  0.000E+00  3.23954E+01  1.732E-01  2.000E+01  2.000E+04 -8.634E-02
   1   18   29     3     8    1.8512E+05 -3.1935E+03   1.8831E+05  0.000E+00  0.000E+00  0.000E+00  3.15079E+01  1.746E-01  2.000E+01  2.000E+04 -1.597E-01
   1   18   30     3     9    1.8831E+05 -3.3656E+03   1.9168E+05  0.000E+00  0.000E+00  0.000E+00  3.06209E+01  1.764E-01  2.000E+01  2.000E+04 -1.683E-01



1
              HEAD IN LAYER   1 AT END OF TIME STEP   1 IN STRESS PERIOD    4
  ---------------------------------------------------------------------------

          1      2      3      4      5      6      7      8      9     10
         11     12     13     14     15     16     17     18     19     20
         21     22     23     24     25     26     27     28     29     30
 .........................................................................
   1  ****** ****** ****** ****** ****** ****** ****** ****** ****** ******
      ****** ****** ****** ****** ****** ****** ****** ****** ****** ******
      ****** ****** ****** ****** ****** ****** ****** ****** ****** ******
   2  ****** ****** ****** ****** ****** ****** ****** ****** ****** ******
      ****** ****** ****** ****** ****** ****** ****** ****** ****** ******
      ****** ****** ****** ****** ****** ****** ****** ****** ****** ******
   3  ****** ****** ****** ****** ****** ****** ****** ****** ****** ******
      ****** ****** ****** ****** ****** ****** ****** ****** ****** ******
      ****** ****** ****** ****** ****** ****** ****** ****** ****** ******
   4  ****** ****** ****** ****** ****** ****** ****** ****** ****** ******
      ****** ****** ****** ****** ****** ****** ****** ****** ****** ******
      ****** ****** ****** ****** ****** ****** ****** ****** ****** ******
   5  ****** ****** ****** ****** ****** ****** ****** ****** ****** ******
      ****** ****** ****** ****** ****** ****** ****** ****** ****** ******
      ****** ****** ****** ****** ****** ****** ****** ****** ****** ******
   6  ****** ****** ****** ****** ****** ****** ****** ****** ****** ******
      ****** ****** ****** ****** ****** ****** ****** ****** ****** ******
      ****** ****** ****** ****** ****** ****** ****** ****** ****** ******
   7  ****** ****** ****** ****** ****** ****** ****** ****** ****** ******
      ****** ****** ****** ****** ****** ****** ****** ****** ****** ******
      ****** ****** ****** ****** ****** ****** ****** ****** ****** ******
   8  ****** ****** ****** ****** ****** ****** ****** ****** ****** ******
      ****** ****** ****** ****** ****** ****** ****** ****** ****** ******
      ****** ****** ****** ****** ****** ****** ****** ****** ****** ******
   9  ****** ****** ****** ****** ****** ****** ****** ****** ****** ******
      ****** ****** ****** ****** ****** ****** ****** ****** ****** ******
      ****** ****** ****** ****** ****** ****** ****** ****** ****** ******
  10  ****** ****** ****** ****** ****** ****** ****** ****** ****** ******
      ****** ****** ****** ****** ****** ****** ****** ****** ****** ******
      ****** ****** ****** ****** ****** ****** ****** ****** ****** ******
  11  ****** ****** ****** ****** ****** ****** ****** ****** ****** ******
      ****** ****** ****** ****** ****** ****** ****** ****** ****** ******
      ****** ****** ****** ****** ****** ****** ****** ****** ****** ******
  12  ****** ****** ****** ****** ****** ****** ****** ****** ****** ******
      ****** ****** ****** ****** ****** ****** ****** ****** ****** ******
      ****** ****** ****** ****** ****** ****** ****** ****** ****** ******
  13  ****** ****** ****** ****** ****** ****** ****** ****** ****** ******
      ****** ****** ****** ****** ****** ****** ****** ****** ****** ******
      ****** ****** ****** ****** ****** ****** ****** ****** ****** ******
  14  ****** ****** ****** ****** ****** ****** ****** ****** ****** ******
      ****** ****** ****** ****** ****** ****** ****** ****** ****** ******
      ****** ****** ****** ****** ****** ****** ****** ****** ****** ******
  15  ****** ****** ****** ****** ****** ****** ****** ****** ****** ******
      ****** ****** ****** ****** ****** ****** ****** ****** ****** ******
      ****** ****** ****** ****** ****** ****** ****** ****** ****** ******
  16  ****** ****** ****** ****** ****** ****** ****** ****** ****** ******
      ****** ****** ****** ****** ****** ****** ****** ****** ****** ******
      ****** ****** ****** ****** ****** ****** ****** ****** ****** ******
  17  ****** ****** ****** ****** ****** ****** ****** ****** ****** ******
      ****** ****** ****** ****** ****** ****** ****** ****** ****** ******
      ****** ****** ****** ****** ****** ****** ****** ****** ****** ******
  18  ****** ****** ****** ****** ****** ****** ****** ****** ****** ******
      ****** ****** ****** ****** ****** ****** ****** ****** ****** ******
      ****** ****** ****** ****** ****** ****** ****** ****** ****** ******
  19  ****** ****** ****** ****** ****** ****** ****** ****** ****** ******
      ****** ****** ****** ****** ****** ****** ****** ****** ****** ******
      ****** ****** ****** ****** ****** ****** ****** ****** ****** ******
  20  ****** ****** ****** ****** ****** ****** ****** ****** ****** ******
      ****** ****** ****** ****** ****** ****** ****** ****** ****** ******
      ****** ****** ****** ****** ****** ****** ****** ****** ****** ******
  21  ****** ****** ****** ****** ****** ****** ****** ****** ****** ******
      ****** ****** ****** ****** ****** ****** ****** ****** ****** ******
      ****** ****** ****** ****** ****** ****** ****** ****** ****** ******
  22  ****** ****** ****** ****** ****** ****** ****** ****** ****** ******
      ****** ****** ****** ****** ****** ****** ****** ****** ****** ******
      ****** ****** ****** ****** ****** ****** ****** ****** ****** ******
  23  ****** ****** ****** ****** ****** ****** ****** ****** ****** ******
      ****** ****** ****** ****** ****** ****** ****** ****** ****** ******
      ****** ****** ****** ****** ****** ****** ****** ****** ****** ******
  24  ****** ****** ****** ****** ****** ****** ****** ****** ****** ******
      ****** ****** ****** ****** ****** ****** ****** ****** ****** ******
      ****** ****** ****** ****** ****** ****** ****** ****** ****** ******
  25  ****** ****** ****** ****** ****** ****** ****** ****** ****** ******
      ****** ****** ****** ****** ****** ****** ****** ****** ****** ******
      ****** ****** ****** ****** ****** ****** ****** ****** ****** ******

 HEAD WILL BE SAVED ON UNIT   51 AT END OF TIME STEP    1, STRESS PERIOD    4
1
  VOLUMETRIC BUDGET FOR ENTIRE MODEL AT END OF TIME STEP    1, STRESS PERIOD   4
  ------------------------------------------------------------------------------

     CUMULATIVE VOLUMES      L**3       RATES FOR THIS TIME STEP      L**3/T
     ------------------                 ------------------------

           IN:                                      IN:
           ---                                      ---
             STORAGE =    30394321.2521               STORAGE =       19577.9705
       CONSTANT HEAD =     8060420.2924         CONSTANT HEAD =       29942.6962
               WELLS =           0.0000                 WELLS =           0.0000
            RECHARGE =     8804400.0000              RECHARGE =       27600.0000
      STREAM LEAKAGE =     2149234.6786        STREAM LEAKAGE =        7005.0568

            TOTAL IN =    49408376.2231              TOTAL IN =       84125.7236

          OUT:                                     OUT:
          ----                                     ----
             STORAGE =        1123.8998               STORAGE =          12.3505
       CONSTANT HEAD =           0.0000         CONSTANT HEAD =           0.0000
               WELLS =    12931828.0132                 WELLS =       35429.6658
            RECHARGE =           0.0000              RECHARGE =           0.0000
      STREAM LEAKAGE =    36475426.3849        STREAM LEAKAGE =       48683.7081

           TOTAL OUT =    49408378.2980             TOTAL OUT =       84125.7244

            IN - OUT =          -2.0748              IN - OUT =      -8.9469E-04

 PERCENT DISCREPANCY =          -0.00     PERCENT DISCREPANCY =          -0.00






         TIME SUMMARY AT END OF TIME STEP    1 IN STRESS PERIOD    4
                    SECONDS     MINUTES      HOURS       DAYS        YEARS
                    -----------------------------------------------------------
   TIME STEP LENGTH 7.86240E+06 1.31040E+05  2184.0      91.000     0.24914    
 STRESS PERIOD TIME 7.86240E+06 1.31040E+05  2184.0      91.000     0.24914    
         TOTAL TIME 3.15360E+07 5.25600E+05  8760.0      365.00     0.99932    
1
1
                            STRESS PERIOD NO.    5, LENGTH =   92.00000    
                            -----------------------------------------------

                              NUMBER OF TIME STEPS =     1

                               MULTIPLIER FOR DELT =     1.500

                            INITIAL TIME STEP SIZE =   92.00000    

 WELL NO.  LAYER   ROW   COL   STRESS RATE         
 --------------------------------------------------
      1      1     16     16      -9666.    
      2      1      6     22      -5938.    
      3      1     19     13      -8939.    
      4      1      6     21     -0.1089E+05

      4 WELLS

                 RECHARGE =  5.000000E-04

 REUSING STREAM SEGMENT DATA FROM LAST STRESS PERIOD
 
 SOLVING FOR HEAD 


     7 CALLS TO PCG ROUTINE FOR TIME STEP   1 IN STRESS PERIOD    5
    26 TOTAL ITERATIONS

 OUTPUT CONTROL FOR STRESS PERIOD    5   TIME STEP    1
    SAVE BUDGET
    SAVE HEAD FOR ALL LAYERS
    PRINT HEAD FOR ALL LAYERS
 UBDSV2 SAVING "STREAMFLOW OUT  " ON UNIT  50 AT TIME STEP  1, STRESS PERIOD   5



 STREAM LISTING     PERIOD      5   STEP        1

 LAYER ROW COL. STREAM  RCH.  FLOW INTO     FLOW TO   FLOW OUT OF   OVRLND.     DIRECT     STREAM       STREAM     STREAM     STREAM   STREAMBED  STREAMBED
                SEG.NO.  NO.  STRM. RCH.    AQUIFER    STRM. RCH.    RUNOFF     PRECIP       ET          HEAD       DEPTH      WIDTH   CONDCTNC.   GRADIENT

   1   13    1     1     1    1.0000E+05 -2.0413E+03   1.0204E+05  0.000E+00  0.000E+00  0.000E+00  4.84069E+01  1.455E-01  2.000E+01  2.000E+04 -1.021E-01
   1   13    2     1     2    1.0204E+05 -3.0594E+03   1.0510E+05  0.000E+00  0.000E+00  0.000E+00  4.79318E+01  1.477E-01  2.000E+01  2.000E+04 -1.530E-01
   1   14    3     1     3    1.0510E+05 -4.8658E+02   1.0559E+05  0.000E+00  0.000E+00  0.000E+00  4.74561E+01  1.492E-01  2.000E+01  2.000E+04 -2.433E-02
   1   15    4     1     4    1.0559E+05 -4.4106E+02   1.0603E+05  0.000E+00  0.000E+00  0.000E+00  4.69792E+01  1.496E-01  2.000E+01  2.000E+04 -2.205E-02
   1   16    5     1     5    1.0603E+05 -1.4249E+03   1.0745E+05  0.000E+00  0.000E+00  0.000E+00  4.65027E+01  1.504E-01  2.000E+01  2.000E+04 -7.125E-02
   1   16    6     1     6    1.0745E+05 -8.8058E+02   1.0833E+05  0.000E+00  0.000E+00  0.000E+00  4.60264E+01  1.514E-01  2.000E+01  2.000E+04 -4.403E-02
   1   16    7     1     7    1.0833E+05 -8.1288E+02   1.0915E+05  0.000E+00  0.000E+00  0.000E+00  4.55498E+01  1.521E-01  2.000E+01  2.000E+04 -4.064E-02
   1   16    8     1     8    1.0915E+05 -7.2256E+02   1.0987E+05  0.000E+00  0.000E+00  0.000E+00  4.50732E+01  1.528E-01  2.000E+01  2.000E+04 -3.613E-02
   1   16    9     1     9    1.0987E+05 -5.8167E+02   1.1045E+05  0.000E+00  0.000E+00  0.000E+00  4.45965E+01  1.533E-01  2.000E+01  2.000E+04 -2.908E-02
   1   16   10     1    10    1.1045E+05 -3.6807E+02   1.1082E+05  0.000E+00  0.000E+00  0.000E+00  4.41196E+01  1.537E-01  2.000E+01  2.000E+04 -1.840E-02
   1   16   11     1    11    1.1082E+05 -4.6475E+01   1.1087E+05  0.000E+00  0.000E+00  0.000E+00  4.36425E+01  1.539E-01  2.000E+01  2.000E+04 -2.324E-03
   1   16   12     1    12    1.1087E+05  5.9527E+02   1.1027E+05  0.000E+00  0.000E+00  0.000E+00  4.31650E+01  1.536E-01  2.000E+01  2.000E+04  2.976E-02
   1   15   13     1    13    1.1027E+05  3.2048E+02   1.0995E+05  0.000E+00  0.000E+00  0.000E+00  4.26873E+01  1.533E-01  2.000E+01  2.000E+04  1.602E-02
   1   14   14     1    14    1.0995E+05 -1.2289E+02   1.1007E+05  0.000E+00  0.000E+00  0.000E+00  4.22100E+01  1.532E-01  2.000E+01  2.000E+04 -6.144E-03
   1   13   15     1    15    1.1007E+05 -8.2006E+02   1.1089E+05  0.000E+00  0.000E+00  0.000E+00  4.17331E+01  1.536E-01  2.000E+01  2.000E+04 -4.100E-02
   1   12   16     1    16    1.1089E+05 -1.9288E+03   1.1282E+05  0.000E+00  0.000E+00  0.000E+00  4.12570E+01  1.547E-01  2.000E+01  2.000E+04 -9.644E-02
   1   12   17     1    17    1.1282E+05 -8.5342E+02   1.1367E+05  0.000E+00  0.000E+00  0.000E+00  4.07809E+01  1.559E-01  2.000E+01  2.000E+04 -4.267E-02
   1   12   18     1    18    1.1367E+05 -7.2068E+02   1.1440E+05  0.000E+00  0.000E+00  0.000E+00  4.03042E+01  1.565E-01  2.000E+01  2.000E+04 -3.603E-02
   1   12   19     1    19    1.1440E+05 -9.1730E+02   1.1531E+05  0.000E+00  0.000E+00  0.000E+00  3.98276E+01  1.572E-01  2.000E+01  2.000E+04 -4.586E-02
   1   13   20     1    20    1.1531E+05 -5.0188E+02   1.1581E+05  0.000E+00  0.000E+00  0.000E+00  3.93509E+01  1.578E-01  2.000E+01  2.000E+04 -2.509E-02
   1   14   21     1    21    1.1581E+05 -5.5688E+02   1.1637E+05  0.000E+00  0.000E+00  0.000E+00  3.88741E+01  1.582E-01  2.000E+01  2.000E+04 -2.784E-02
   1   14   22     1    22    1.1637E+05  5.0435E+03   1.1133E+05  0.000E+00  0.000E+00  0.000E+00  3.83950E+01  1.564E-01  2.000E+01  2.000E+04  2.522E-01
   1    9   30     2     1    5.0000E+04 -2.0959E+02   5.0210E+04  0.000E+00  0.000E+00  0.000E+00  4.02410E+01  1.160E-01  2.000E+01  2.000E+04 -1.048E-02
   1    9   29     2     2    5.0210E+04 -4.5777E+02   5.0667E+04  0.000E+00  0.000E+00  0.000E+00  3.99915E+01  1.165E-01  2.000E+01  2.000E+04 -2.289E-02
   1    9   28     2     3    5.0667E+04 -5.8058E+02   5.1248E+04  0.000E+00  0.000E+00  0.000E+00  3.97422E+01  1.172E-01  2.000E+01  2.000E+04 -2.903E-02
   1    9   27     2     4    5.1248E+04 -1.0351E+03   5.2283E+04  0.000E+00  0.000E+00  0.000E+00  3.94933E+01  1.183E-01  2.000E+01  2.000E+04 -5.175E-02
   1   10   26     2     5    5.2283E+04 -4.0411E+02   5.2687E+04  0.000E+00  0.000E+00  0.000E+00  3.92443E+01  1.193E-01  2.000E+01  2.000E+04 -2.021E-02
   1   11   25     2     6    5.2687E+04 -3.2351E+02   5.3011E+04  0.000E+00  0.000E+00  0.000E+00  3.89948E+01  1.198E-01  2.000E+01  2.000E+04 -1.618E-02
   1   12   24     2     7    5.3011E+04 -5.0894E+02   5.3520E+04  0.000E+00  0.000E+00  0.000E+00  3.87453E+01  1.203E-01  2.000E+01  2.000E+04 -2.545E-02
   1   13   23     2     8    5.3520E+04 -9.4007E+01   5.3614E+04  0.000E+00  0.000E+00  0.000E+00  3.84958E+01  1.208E-01  2.000E+01  2.000E+04 -4.700E-03
   1   14   22     2     9    5.3614E+04  2.0324E+03   5.1581E+04  0.000E+00  0.000E+00  0.000E+00  3.82444E+01  1.194E-01  2.000E+01  2.000E+04  1.016E-01
   1   14   22     3     1    1.6291E+05 -8.4780E+03   1.7139E+05  0.000E+00  0.000E+00  0.000E+00  3.77189E+01  1.634E-01  2.000E+01  2.000E+04 -4.239E-01
   1   15   23     3     2    1.7139E+05 -4.1238E+02   1.7180E+05  0.000E+00  0.000E+00  0.000E+00  3.68326E+01  1.660E-01  2.000E+01  2.000E+04 -2.062E-02
   1   15   24     3     3    1.7180E+05 -2.4160E+02   1.7204E+05  0.000E+00  0.000E+00  0.000E+00  3.59439E+01  1.661E-01  2.000E+01  2.000E+04 -1.208E-02
   1   15   25     3     4    1.7204E+05 -2.4402E+02   1.7229E+05  0.000E+00  0.000E+00  0.000E+00  3.50552E+01  1.663E-01  2.000E+01  2.000E+04 -1.220E-02
   1   15   26     3     5    1.7229E+05 -2.9778E+02   1.7258E+05  0.000E+00  0.000E+00  0.000E+00  3.41664E+01  1.664E-01  2.000E+01  2.000E+04 -1.489E-02
   1   16   27     3     6    1.7258E+05 -3.2825E+02   1.7291E+05  0.000E+00  0.000E+00  0.000E+00  3.32777E+01  1.666E-01  2.000E+01  2.000E+04 -1.641E-02
   1   17   28     3     7    1.7291E+05 -1.4518E+03   1.7436E+05  0.000E+00  0.000E+00  0.000E+00  3.23894E+01  1.671E-01  2.000E+01  2.000E+04 -7.259E-02
   1   18   29     3     8    1.7436E+05 -2.8043E+03   1.7717E+05  0.000E+00  0.000E+00  0.000E+00  3.15017E+01  1.684E-01  2.000E+01  2.000E+04 -1.402E-01
   1   18   30     3     9    1.7717E+05 -3.0989E+03   1.8027E+05  0.000E+00  0.000E+00  0.000E+00  3.06145E+01  1.701E-01  2.000E+01  2.000E+04 -1.549E-01



1
              HEAD IN LAYER   1 AT END OF TIME STEP   1 IN STRESS PERIOD    5
  ---------------------------------------------------------------------------

          1      2      3      4      5      6      7      8      9     10
         11     12     13     14     15     16     17     18     19     20
         21     22     23     24     25     26     27     28     29     30
 .........................................................................
   1  ****** ****** ****** ****** ****** ****** ****** ****** ****** ******
      ****** ****** ****** ****** ****** ****** ****** ****** ****** ******
      ****** ****** ****** ****** ****** ****** ****** ****** ****** ******
   2  ****** ****** ****** ****** ****** ****** ****** ****** ****** ******
      ****** ****** ****** ****** ****** ****** ****** ****** ****** ******
      ****** ****** ****** ****** ****** ****** ****** ****** ****** ******
   3  ****** ****** ****** ****** ****** ****** ****** ****** ****** ******
      ****** ****** ****** ****** ****** ****** ****** ****** ****** ******
      ****** ****** ****** ****** ****** ****** ****** ****** ****** ******
   4  ****** ****** ****** ****** ****** ****** ****** ****** ****** ******
      ****** ****** ****** ****** ****** ****** ****** ****** ****** ******
      ****** ****** ****** ****** ****** ****** ****** ****** ****** ******
   5  ****** ****** ****** ****** ****** ****** ****** ****** ****** ******
      ****** ****** ****** ****** ****** ****** ****** ****** ****** ******
      ****** ****** ****** ****** ****** ****** ****** ****** ****** ******
   6  ****** ****** ****** ****** ****** ****** ****** ****** ****** ******
      ****** ****** ****** ****** ****** ****** ****** ****** ****** ******
      ****** ****** ****** ****** ****** ****** ****** ****** ****** ******
   7  ****** ****** ****** ****** ****** ****** ****** ****** ****** ******
      ****** ****** ****** ****** ****** ****** ****** ****** ****** ******
      ****** ****** ****** ****** ****** ****** ****** ****** ****** ******
   8  ****** ****** ****** ****** ****** ****** ****** ****** ****** ******
      ****** ****** ****** ****** ****** ****** ****** ****** ****** ******
      ****** ****** ****** ****** ****** ****** ****** ****** ****** ******
   9  ****** ****** ****** ****** ****** ****** ****** ****** ****** ******
      ****** ****** ****** ****** ****** ****** ****** ****** ****** ******
      ****** ****** ****** ****** ****** ****** ****** ****** ****** ******
  10  ****** ****** ****** ****** ****** ****** ****** ****** ****** ******
      ****** ****** ****** ****** ****** ****** ****** ****** ****** ******
      ****** ****** ****** ****** ****** ****** ****** ****** ****** ******
  11  ****** ****** ****** ****** ****** ****** ****** ****** ****** ******
      ****** ****** ****** ****** ****** ****** ****** ****** ****** ******
      ****** ****** ****** ****** ****** ****** ****** ****** ****** ******
  12  ****** ****** ****** ****** ****** ****** ****** ****** ****** ******
      ****** ****** ****** ****** ****** ****** ****** ****** ****** ******
      ****** ****** ****** ****** ****** ****** ****** ****** ****** ******
  13  ****** ****** ****** ****** ****** ****** ****** ****** ****** ******
      ****** ****** ****** ****** ****** ****** ****** ****** ****** ******
      ****** ****** ****** ****** ****** ****** ****** ****** ****** ******
  14  ****** ****** ****** ****** ****** ****** ****** ****** ****** ******
      ****** ****** ****** ****** ****** ****** ****** ****** ****** ******
      ****** ****** ****** ****** ****** ****** ****** ****** ****** ******
  15  ****** ****** ****** ****** ****** ****** ****** ****** ****** ******
      ****** ****** ****** ****** ****** ****** ****** ****** ****** ******
      ****** ****** ****** ****** ****** ****** ****** ****** ****** ******
  16  ****** ****** ****** ****** ****** ****** ****** ****** ****** ******
      ****** ****** ****** ****** ****** ****** ****** ****** ****** ******
      ****** ****** ****** ****** ****** ****** ****** ****** ****** ******
  17  ****** ****** ****** ****** ****** ****** ****** ****** ****** ******
      ****** ****** ****** ****** ****** ****** ****** ****** ****** ******
      ****** ****** ****** ****** ****** ****** ****** ****** ****** ******
  18  ****** ****** ****** ****** ****** ****** ****** ****** ****** ******
      ****** ****** ****** ****** ****** ****** ****** ****** ****** ******
      ****** ****** ****** ****** ****** ****** ****** ****** ****** ******
  19  ****** ****** ****** ****** ****** ****** ****** ****** ****** ******
      ****** ****** ****** ****** ****** ****** ****** ****** ****** ******
      ****** ****** ****** ****** ****** ****** ****** ****** ****** ******
  20  ****** ****** ****** ****** ****** ****** ****** ****** ****** ******
      ****** ****** ****** ****** ****** ****** ****** ****** ****** ******
      ****** ****** ****** ****** ****** ****** ****** ****** ****** ******
  21  ****** ****** ****** ****** ****** ****** ****** ****** ****** ******
      ****** ****** ****** ****** ****** ****** ****** ****** ****** ******
      ****** ****** ****** ****** ****** ****** ****** ****** ****** ******
  22  ****** ****** ****** ****** ****** ****** ****** ****** ****** ******
      ****** ****** ****** ****** ****** ****** ****** ****** ****** ******
      ****** ****** ****** ****** ****** ****** ****** ****** ****** ******
  23  ****** ****** ****** ****** ****** ****** ****** ****** ****** ******
      ****** ****** ****** ****** ****** ****** ****** ****** ****** ******
      ****** ****** ****** ****** ****** ****** ****** ****** ****** ******
  24  ****** ****** ****** ****** ****** ****** ****** ****** ****** ******
      ****** ****** ****** ****** ****** ****** ****** ****** ****** ******
      ****** ****** ****** ****** ****** ****** ****** ****** ****** ******
  25  ****** ****** ****** ****** ****** ****** ****** ****** ****** ******
      ****** ****** ****** ****** ****** ****** ****** ****** ****** ******
      ****** ****** ****** ****** ****** ****** ****** ****** ****** ******

 HEAD WILL BE SAVED ON UNIT   51 AT END OF TIME STEP    1, STRESS PERIOD    5
1
  VOLUMETRIC BUDGET FOR ENTIRE MODEL AT END OF TIME STEP    1, STRESS PERIOD   5
  ------------------------------------------------------------------------------

     CUMULATIVE VOLUMES      L**3       RATES FOR THIS TIME STEP      L**3/T
     ------------------                 ------------------------

           IN:                                      IN:
           ---                                      ---
             STORAGE =    32133806.3741               STORAGE =       18907.4470
       CONSTANT HEAD =    11095362.1078         CONSTANT HEAD =       32988.4980
               WELLS =           0.0000                 WELLS =           0.0000
            RECHARGE =    10074000.0000              RECHARGE =       13800.0000
      STREAM LEAKAGE =     2884472.3930        STREAM LEAKAGE =        7991.7143

            TOTAL IN =    56187640.8749              TOTAL IN =       73687.6593

          OUT:                                     OUT:
          ----                                     ----
             STORAGE =        1123.8998               STORAGE =           0.0000
       CONSTANT HEAD =           0.0000         CONSTANT HEAD =           0.0000
               WELLS =    16191357.2659                 WELLS =       35429.6658
            RECHARGE =           0.0000              RECHARGE =           0.0000
      STREAM LEAKAGE =    39995162.0899        STREAM LEAKAGE =       38257.9968

           TOTAL OUT =    56187643.2556             TOTAL OUT =       73687.6626

            IN - OUT =          -2.3806              IN - OUT =      -3.3238E-03

 PERCENT DISCREPANCY =          -0.00     PERCENT DISCREPANCY =          -0.00






         TIME SUMMARY AT END OF TIME STEP    1 IN STRESS PERIOD    5
                    SECONDS     MINUTES      HOURS       DAYS        YEARS
                    -----------------------------------------------------------
   TIME STEP LENGTH 7.94880E+06 1.32480E+05  2208.0      92.000     0.25188    
 STRESS PERIOD TIME 7.94880E+06 1.32480E+05  2208.0      92.000     0.25188    
         TOTAL TIME 3.94848E+07 6.58080E+05  10968.      457.00      1.2512    
1
1
                            STRESS PERIOD NO.    6, LENGTH =   91.00000    
                            -----------------------------------------------

                              NUMBER OF TIME STEPS =     1

                               MULTIPLIER FOR DELT =     1.500

                            INITIAL TIME STEP SIZE =   91.00000    

 WELL NO.  LAYER   ROW   COL   STRESS RATE         
 --------------------------------------------------
      1      1     16     16      -9666.    
      2      1      6     22      -5938.    
      3      1     19     13      -8939.    
      4      1      6     21     -0.1089E+05

      4 WELLS

                 RECHARGE =  2.000000E-03

 REUSING STREAM SEGMENT DATA FROM LAST STRESS PERIOD
 
 SOLVING FOR HEAD 


     7 CALLS TO PCG ROUTINE FOR TIME STEP   1 IN STRESS PERIOD    6
    26 TOTAL ITERATIONS

 OUTPUT CONTROL FOR STRESS PERIOD    6   TIME STEP    1
    SAVE BUDGET
    SAVE HEAD FOR ALL LAYERS
    PRINT HEAD FOR ALL LAYERS
 UBDSV2 SAVING "STREAMFLOW OUT  " ON UNIT  50 AT TIME STEP  1, STRESS PERIOD   6



 STREAM LISTING     PERIOD      6   STEP        1

 LAYER ROW COL. STREAM  RCH.  FLOW INTO     FLOW TO   FLOW OUT OF   OVRLND.     DIRECT     STREAM       STREAM     STREAM     STREAM   STREAMBED  STREAMBED
                SEG.NO.  NO.  STRM. RCH.    AQUIFER    STRM. RCH.    RUNOFF     PRECIP       ET          HEAD       DEPTH      WIDTH   CONDCTNC.   GRADIENT

   1   13    1     1     1    1.0000E+05 -2.3514E+03   1.0235E+05  0.000E+00  0.000E+00  0.000E+00  4.84070E+01  1.457E-01  2.000E+01  2.000E+04 -1.176E-01
   1   13    2     1     2    1.0235E+05 -3.3993E+03   1.0575E+05  0.000E+00  0.000E+00  0.000E+00  4.79322E+01  1.481E-01  2.000E+01  2.000E+04 -1.700E-01
   1   14    3     1     3    1.0575E+05 -6.4057E+02   1.0639E+05  0.000E+00  0.000E+00  0.000E+00  4.74567E+01  1.499E-01  2.000E+01  2.000E+04 -3.203E-02
   1   15    4     1     4    1.0639E+05 -6.0619E+02   1.0700E+05  0.000E+00  0.000E+00  0.000E+00  4.69799E+01  1.504E-01  2.000E+01  2.000E+04 -3.031E-02
   1   16    5     1     5    1.0700E+05 -1.9126E+03   1.0891E+05  0.000E+00  0.000E+00  0.000E+00  4.65037E+01  1.514E-01  2.000E+01  2.000E+04 -9.563E-02
   1   16    6     1     6    1.0891E+05 -1.1671E+03   1.1008E+05  0.000E+00  0.000E+00  0.000E+00  4.60277E+01  1.527E-01  2.000E+01  2.000E+04 -5.836E-02
   1   16    7     1     7    1.1008E+05 -1.0843E+03   1.1116E+05  0.000E+00  0.000E+00  0.000E+00  4.55514E+01  1.537E-01  2.000E+01  2.000E+04 -5.422E-02
   1   16    8     1     8    1.1116E+05 -9.8928E+02   1.1215E+05  0.000E+00  0.000E+00  0.000E+00  4.50750E+01  1.545E-01  2.000E+01  2.000E+04 -4.946E-02
   1   16    9     1     9    1.1215E+05 -8.4764E+02   1.1300E+05  0.000E+00  0.000E+00  0.000E+00  4.45985E+01  1.553E-01  2.000E+01  2.000E+04 -4.238E-02
   1   16   10     1    10    1.1300E+05 -6.3526E+02   1.1363E+05  0.000E+00  0.000E+00  0.000E+00  4.41218E+01  1.559E-01  2.000E+01  2.000E+04 -3.176E-02
   1   16   11     1    11    1.1363E+05 -3.1629E+02   1.1395E+05  0.000E+00  0.000E+00  0.000E+00  4.36449E+01  1.563E-01  2.000E+01  2.000E+04 -1.581E-02
   1   16   12     1    12    1.1395E+05  1.6126E+02   1.1379E+05  0.000E+00  0.000E+00  0.000E+00  4.31677E+01  1.564E-01  2.000E+01  2.000E+04  8.063E-03
   1   15   13     1    13    1.1379E+05 -1.2461E+02   1.1391E+05  0.000E+00  0.000E+00  0.000E+00  4.26905E+01  1.564E-01  2.000E+01  2.000E+04 -6.230E-03
   1   14   14     1    14    1.1391E+05 -5.6256E+02   1.1448E+05  0.000E+00  0.000E+00  0.000E+00  4.22135E+01  1.566E-01  2.000E+01  2.000E+04 -2.813E-02
   1   13   15     1    15    1.1448E+05 -1.2394E+03   1.1572E+05  0.000E+00  0.000E+00  0.000E+00  4.17369E+01  1.574E-01  2.000E+01  2.000E+04 -6.197E-02
   1   12   16     1    16    1.1572E+05 -2.2989E+03   1.1801E+05  0.000E+00  0.000E+00  0.000E+00  4.12611E+01  1.588E-01  2.000E+01  2.000E+04 -1.149E-01
   1   12   17     1    17    1.1801E+05 -1.1568E+03   1.1917E+05  0.000E+00  0.000E+00  0.000E+00  4.07852E+01  1.602E-01  2.000E+01  2.000E+04 -5.784E-02
   1   12   18     1    18    1.1917E+05 -1.0278E+03   1.2020E+05  0.000E+00  0.000E+00  0.000E+00  4.03088E+01  1.611E-01  2.000E+01  2.000E+04 -5.139E-02
   1   12   19     1    19    1.2020E+05 -1.2982E+03   1.2150E+05  0.000E+00  0.000E+00  0.000E+00  3.98325E+01  1.621E-01  2.000E+01  2.000E+04 -6.491E-02
   1   13   20     1    20    1.2150E+05 -9.1366E+02   1.2241E+05  0.000E+00  0.000E+00  0.000E+00  3.93561E+01  1.629E-01  2.000E+01  2.000E+04 -4.568E-02
   1   14   21     1    21    1.2241E+05 -9.5840E+02   1.2337E+05  0.000E+00  0.000E+00  0.000E+00  3.88796E+01  1.637E-01  2.000E+01  2.000E+04 -4.792E-02
   1   14   22     1    22    1.2337E+05  4.9395E+03   1.1843E+05  0.000E+00  0.000E+00  0.000E+00  3.84007E+01  1.621E-01  2.000E+01  2.000E+04  2.470E-01
   1    9   30     2     1    5.0000E+04 -5.6636E+02   5.0566E+04  0.000E+00  0.000E+00  0.000E+00  4.02413E+01  1.163E-01  2.000E+01  2.000E+04 -2.832E-02
   1    9   29     2     2    5.0566E+04 -8.0985E+02   5.1376E+04  0.000E+00  0.000E+00  0.000E+00  3.99922E+01  1.172E-01  2.000E+01  2.000E+04 -4.049E-02
   1    9   28     2     3    5.1376E+04 -9.2499E+02   5.2301E+04  0.000E+00  0.000E+00  0.000E+00  3.97434E+01  1.184E-01  2.000E+01  2.000E+04 -4.625E-02
   1    9   27     2     4    5.2301E+04 -1.4657E+03   5.3767E+04  0.000E+00  0.000E+00  0.000E+00  3.94950E+01  1.200E-01  2.000E+01  2.000E+04 -7.328E-02
   1   10   26     2     5    5.3767E+04 -8.6301E+02   5.4630E+04  0.000E+00  0.000E+00  0.000E+00  3.92466E+01  1.216E-01  2.000E+01  2.000E+04 -4.315E-02
   1   11   25     2     6    5.4630E+04 -7.6948E+02   5.5399E+04  0.000E+00  0.000E+00  0.000E+00  3.89977E+01  1.227E-01  2.000E+01  2.000E+04 -3.847E-02
   1   12   24     2     7    5.5399E+04 -9.1090E+02   5.6310E+04  0.000E+00  0.000E+00  0.000E+00  3.87488E+01  1.238E-01  2.000E+01  2.000E+04 -4.554E-02
   1   13   23     2     8    5.6310E+04 -2.3068E+02   5.6541E+04  0.000E+00  0.000E+00  0.000E+00  3.84996E+01  1.246E-01  2.000E+01  2.000E+04 -1.153E-02
   1   14   22     2     9    5.6541E+04  1.8944E+03   5.4647E+04  0.000E+00  0.000E+00  0.000E+00  3.82485E+01  1.235E-01  2.000E+01  2.000E+04  9.472E-02
   1   14   22     3     1    1.7308E+05 -8.5784E+03   1.8165E+05  0.000E+00  0.000E+00  0.000E+00  3.77248E+01  1.693E-01  2.000E+01  2.000E+04 -4.289E-01
   1   15   23     3     2    1.8165E+05 -5.4775E+02   1.8220E+05  0.000E+00  0.000E+00  0.000E+00  3.68386E+01  1.719E-01  2.000E+01  2.000E+04 -2.739E-02
   1   15   24     3     3    1.8220E+05 -3.6270E+02   1.8256E+05  0.000E+00  0.000E+00  0.000E+00  3.59499E+01  1.721E-01  2.000E+01  2.000E+04 -1.814E-02
   1   15   25     3     4    1.8256E+05 -3.6980E+02   1.8293E+05  0.000E+00  0.000E+00  0.000E+00  3.50612E+01  1.724E-01  2.000E+01  2.000E+04 -1.849E-02
   1   15   26     3     5    1.8293E+05 -4.4879E+02   1.8338E+05  0.000E+00  0.000E+00  0.000E+00  3.41726E+01  1.726E-01  2.000E+01  2.000E+04 -2.244E-02
   1   16   27     3     6    1.8338E+05 -4.9628E+02   1.8388E+05  0.000E+00  0.000E+00  0.000E+00  3.32840E+01  1.728E-01  2.000E+01  2.000E+04 -2.481E-02
   1   17   28     3     7    1.8388E+05 -1.9122E+03   1.8579E+05  0.000E+00  0.000E+00  0.000E+00  3.23958E+01  1.735E-01  2.000E+01  2.000E+04 -9.561E-02
   1   18   29     3     8    1.8579E+05 -3.2388E+03   1.8903E+05  0.000E+00  0.000E+00  0.000E+00  3.15083E+01  1.750E-01  2.000E+01  2.000E+04 -1.619E-01
   1   18   30     3     9    1.8903E+05 -3.4522E+03   1.9248E+05  0.000E+00  0.000E+00  0.000E+00  3.06213E+01  1.768E-01  2.000E+01  2.000E+04 -1.726E-01



1
              HEAD IN LAYER   1 AT END OF TIME STEP   1 IN STRESS PERIOD    6
  ---------------------------------------------------------------------------

          1      2      3      4      5      6      7      8      9     10
         11     12     13     14     15     16     17     18     19     20
         21     22     23     24     25     26     27     28     29     30
 .........................................................................
   1  ****** ****** ****** ****** ****** ****** ****** ****** ****** ******
      ****** ****** ****** ****** ****** ****** ****** ****** ****** ******
      ****** ****** ****** ****** ****** ****** ****** ****** ****** ******
   2  ****** ****** ****** ****** ****** ****** ****** ****** ****** ******
      ****** ****** ****** ****** ****** ****** ****** ****** ****** ******
      ****** ****** ****** ****** ****** ****** ****** ****** ****** ******
   3  ****** ****** ****** ****** ****** ****** ****** ****** ****** ******
      ****** ****** ****** ****** ****** ****** ****** ****** ****** ******
      ****** ****** ****** ****** ****** ****** ****** ****** ****** ******
   4  ****** ****** ****** ****** ****** ****** ****** ****** ****** ******
      ****** ****** ****** ****** ****** ****** ****** ****** ****** ******
      ****** ****** ****** ****** ****** ****** ****** ****** ****** ******
   5  ****** ****** ****** ****** ****** ****** ****** ****** ****** ******
      ****** ****** ****** ****** ****** ****** ****** ****** ****** ******
      ****** ****** ****** ****** ****** ****** ****** ****** ****** ******
   6  ****** ****** ****** ****** ****** ****** ****** ****** ****** ******
      ****** ****** ****** ****** ****** ****** ****** ****** ****** ******
      ****** ****** ****** ****** ****** ****** ****** ****** ****** ******
   7  ****** ****** ****** ****** ****** ****** ****** ****** ****** ******
      ****** ****** ****** ****** ****** ****** ****** ****** ****** ******
      ****** ****** ****** ****** ****** ****** ****** ****** ****** ******
   8  ****** ****** ****** ****** ****** ****** ****** ****** ****** ******
      ****** ****** ****** ****** ****** ****** ****** ****** ****** ******
      ****** ****** ****** ****** ****** ****** ****** ****** ****** ******
   9  ****** ****** ****** ****** ****** ****** ****** ****** ****** ******
      ****** ****** ****** ****** ****** ****** ****** ****** ****** ******
      ****** ****** ****** ****** ****** ****** ****** ****** ****** ******
  10  ****** ****** ****** ****** ****** ****** ****** ****** ****** ******
      ****** ****** ****** ****** ****** ****** ****** ****** ****** ******
      ****** ****** ****** ****** ****** ****** ****** ****** ****** ******
  11  ****** ****** ****** ****** ****** ****** ****** ****** ****** ******
      ****** ****** ****** ****** ****** ****** ****** ****** ****** ******
      ****** ****** ****** ****** ****** ****** ****** ****** ****** ******
  12  ****** ****** ****** ****** ****** ****** ****** ****** ****** ******
      ****** ****** ****** ****** ****** ****** ****** ****** ****** ******
      ****** ****** ****** ****** ****** ****** ****** ****** ****** ******
  13  ****** ****** ****** ****** ****** ****** ****** ****** ****** ******
      ****** ****** ****** ****** ****** ****** ****** ****** ****** ******
      ****** ****** ****** ****** ****** ****** ****** ****** ****** ******
  14  ****** ****** ****** ****** ****** ****** ****** ****** ****** ******
      ****** ****** ****** ****** ****** ****** ****** ****** ****** ******
      ****** ****** ****** ****** ****** ****** ****** ****** ****** ******
  15  ****** ****** ****** ****** ****** ****** ****** ****** ****** ******
      ****** ****** ****** ****** ****** ****** ****** ****** ****** ******
      ****** ****** ****** ****** ****** ****** ****** ****** ****** ******
  16  ****** ****** ****** ****** ****** ****** ****** ****** ****** ******
      ****** ****** ****** ****** ****** ****** ****** ****** ****** ******
      ****** ****** ****** ****** ****** ****** ****** ****** ****** ******
  17  ****** ****** ****** ****** ****** ****** ****** ****** ****** ******
      ****** ****** ****** ****** ****** ****** ****** ****** ****** ******
      ****** ****** ****** ****** ****** ****** ****** ****** ****** ******
  18  ****** ****** ****** ****** ****** ****** ****** ****** ****** ******
      ****** ****** ****** ****** ****** ****** ****** ****** ****** ******
      ****** ****** ****** ****** ****** ****** ****** ****** ****** ******
  19  ****** ****** ****** ****** ****** ****** ****** ****** ****** ******
      ****** ****** ****** ****** ****** ****** ****** ****** ****** ******
      ****** ****** ****** ****** ****** ****** ****** ****** ****** ******
  20  ****** ****** ****** ****** ****** ****** ****** ****** ****** ******
      ****** ****** ****** ****** ****** ****** ****** ****** ****** ******
      ****** ****** ****** ****** ****** ****** ****** ****** ****** ******
  21  ****** ****** ****** ****** ****** ****** ****** ****** ****** ******
      ****** ****** ****** ****** ****** ****** ****** ****** ****** ******
      ****** ****** ****** ****** ****** ****** ****** ****** ****** ******
  22  ****** ****** ****** ****** ****** ****** ****** ****** ****** ******
      ****** ****** ****** ****** ****** ****** ****** ****** ****** ******
      ****** ****** ****** ****** ****** ****** ****** ****** ****** ******
  23  ****** ****** ****** ****** ****** ****** ****** ****** ****** ******
      ****** ****** ****** ****** ****** ****** ****** ****** ****** ******
      ****** ****** ****** ****** ****** ****** ****** ****** ****** ******
  24  ****** ****** ****** ****** ****** ****** ****** ****** ****** ******
      ****** ****** ****** ****** ****** ****** ****** ****** ****** ******
      ****** ****** ****** ****** ****** ****** ****** ****** ****** ******
  25  ****** ****** ****** ****** ****** ****** ****** ****** ****** ******
      ****** ****** ****** ****** ****** ****** ****** ****** ****** ******
      ****** ****** ****** ****** ****** ****** ****** ****** ****** ******

 HEAD WILL BE SAVED ON UNIT   51 AT END OF TIME STEP    1, STRESS PERIOD    6
1
  VOLUMETRIC BUDGET FOR ENTIRE MODEL AT END OF TIME STEP    1, STRESS PERIOD   6
  ------------------------------------------------------------------------------

     CUMULATIVE VOLUMES      L**3       RATES FOR THIS TIME STEP      L**3/T
     ------------------                 ------------------------

           IN:                                      IN:
           ---                                      ---
             STORAGE =    32133806.3741               STORAGE =           0.0000
       CONSTANT HEAD =    13929956.2110         CONSTANT HEAD =       31149.3857
               WELLS =           0.0000                 WELLS =           0.0000
            RECHARGE =    15097200.0000              RECHARGE =       55200.0000
      STREAM LEAKAGE =     3521030.5209        STREAM LEAKAGE =        6995.1443

            TOTAL IN =    64681993.1060              TOTAL IN =       93344.5300

          OUT:                                     OUT:
          ----                                     ----
             STORAGE =      768873.8218               STORAGE =        8436.8123
       CONSTANT HEAD =           0.0000         CONSTANT HEAD =           0.0000
               WELLS =    19415456.8527                 WELLS =       35429.6658
            RECHARGE =           0.0000              RECHARGE =           0.0000
      STREAM LEAKAGE =    44497664.5452        STREAM LEAKAGE =       49478.0490

           TOTAL OUT =    64681995.2197             TOTAL OUT =       93344.5271

            IN - OUT =          -2.1137              IN - OUT =       2.9329E-03

 PERCENT DISCREPANCY =          -0.00     PERCENT DISCREPANCY =           0.00






         TIME SUMMARY AT END OF TIME STEP    1 IN STRESS PERIOD    6
                    SECONDS     MINUTES      HOURS       DAYS        YEARS
                    -----------------------------------------------------------
   TIME STEP LENGTH 7.86240E+06 1.31040E+05  2184.0      91.000     0.24914    
 STRESS PERIOD TIME 7.86240E+06 1.31040E+05  2184.0      91.000     0.24914    
         TOTAL TIME 4.73472E+07 7.89120E+05  13152.      548.00      1.5003    
1
1
                            STRESS PERIOD NO.    7, LENGTH =   91.00000    
                            -----------------------------------------------

                              NUMBER OF TIME STEPS =     1

                               MULTIPLIER FOR DELT =     1.500

                            INITIAL TIME STEP SIZE =   91.00000    

 WELL NO.  LAYER   ROW   COL   STRESS RATE         
 --------------------------------------------------
      1      1     16     16      -9666.    
      2      1      6     22      -5938.    
      3      1     19     13      -8939.    
      4      1      6     21     -0.1089E+05

      4 WELLS

                 RECHARGE =   0.00000    

 REUSING STREAM SEGMENT DATA FROM LAST STRESS PERIOD
 
 SOLVING FOR HEAD 


     7 CALLS TO PCG ROUTINE FOR TIME STEP   1 IN STRESS PERIOD    7
    26 TOTAL ITERATIONS

 OUTPUT CONTROL FOR STRESS PERIOD    7   TIME STEP    1
    SAVE BUDGET
    SAVE HEAD FOR ALL LAYERS
    PRINT HEAD FOR ALL LAYERS
 UBDSV2 SAVING "STREAMFLOW OUT  " ON UNIT  50 AT TIME STEP  1, STRESS PERIOD   7



 STREAM LISTING     PERIOD      7   STEP        1

 LAYER ROW COL. STREAM  RCH.  FLOW INTO     FLOW TO   FLOW OUT OF   OVRLND.     DIRECT     STREAM       STREAM     STREAM     STREAM   STREAMBED  STREAMBED
                SEG.NO.  NO.  STRM. RCH.    AQUIFER    STRM. RCH.    RUNOFF     PRECIP       ET          HEAD       DEPTH      WIDTH   CONDCTNC.   GRADIENT

   1   13    1     1     1    1.0000E+05 -1.6824E+03   1.0168E+05  0.000E+00  0.000E+00  0.000E+00  4.84067E+01  1.454E-01  2.000E+01  2.000E+04 -8.412E-02
   1   13    2     1     2    1.0168E+05 -2.6511E+03   1.0433E+05  0.000E+00  0.000E+00  0.000E+00  4.79313E+01  1.472E-01  2.000E+01  2.000E+04 -1.326E-01
   1   14    3     1     3    1.0433E+05 -3.8809E+02   1.0472E+05  0.000E+00  0.000E+00  0.000E+00  4.74554E+01  1.485E-01  2.000E+01  2.000E+04 -1.940E-02
   1   15    4     1     4    1.0472E+05 -3.4280E+02   1.0506E+05  0.000E+00  0.000E+00  0.000E+00  4.69784E+01  1.489E-01  2.000E+01  2.000E+04 -1.714E-02
   1   16    5     1     5    1.0506E+05 -1.1547E+03   1.0622E+05  0.000E+00  0.000E+00  0.000E+00  4.65018E+01  1.495E-01  2.000E+01  2.000E+04 -5.773E-02
   1   16    6     1     6    1.0622E+05 -7.1027E+02   1.0693E+05  0.000E+00  0.000E+00  0.000E+00  4.60253E+01  1.503E-01  2.000E+01  2.000E+04 -3.551E-02
   1   16    7     1     7    1.0693E+05 -6.4594E+02   1.0758E+05  0.000E+00  0.000E+00  0.000E+00  4.55486E+01  1.509E-01  2.000E+01  2.000E+04 -3.230E-02
   1   16    8     1     8    1.0758E+05 -5.5678E+02   1.0813E+05  0.000E+00  0.000E+00  0.000E+00  4.50718E+01  1.514E-01  2.000E+01  2.000E+04 -2.784E-02
   1   16    9     1     9    1.0813E+05 -4.1815E+02   1.0855E+05  0.000E+00  0.000E+00  0.000E+00  4.45950E+01  1.518E-01  2.000E+01  2.000E+04 -2.091E-02
   1   16   10     1    10    1.0855E+05 -2.0804E+02   1.0876E+05  0.000E+00  0.000E+00  0.000E+00  4.41179E+01  1.520E-01  2.000E+01  2.000E+04 -1.040E-02
   1   16   11     1    11    1.0876E+05  1.1247E+02   1.0865E+05  0.000E+00  0.000E+00  0.000E+00  4.36407E+01  1.521E-01  2.000E+01  2.000E+04  5.623E-03
   1   16   12     1    12    1.0865E+05  8.8258E+02   1.0776E+05  0.000E+00  0.000E+00  0.000E+00  4.31630E+01  1.517E-01  2.000E+01  2.000E+04  4.413E-02
   1   15   13     1    13    1.0776E+05  6.4825E+02   1.0711E+05  0.000E+00  0.000E+00  0.000E+00  4.26851E+01  1.510E-01  2.000E+01  2.000E+04  3.241E-02
   1   14   14     1    14    1.0711E+05  2.3837E+02   1.0688E+05  0.000E+00  0.000E+00  0.000E+00  4.22075E+01  1.506E-01  2.000E+01  2.000E+04  1.192E-02
   1   13   15     1    15    1.0688E+05 -4.3599E+02   1.0731E+05  0.000E+00  0.000E+00  0.000E+00  4.17303E+01  1.507E-01  2.000E+01  2.000E+04 -2.180E-02
   1   12   16     1    16    1.0731E+05 -1.5003E+03   1.0881E+05  0.000E+00  0.000E+00  0.000E+00  4.12538E+01  1.515E-01  2.000E+01  2.000E+04 -7.501E-02
   1   12   17     1    17    1.0881E+05 -5.7606E+02   1.0939E+05  0.000E+00  0.000E+00  0.000E+00  4.07774E+01  1.524E-01  2.000E+01  2.000E+04 -2.880E-02
   1   12   18     1    18    1.0939E+05 -4.6119E+02   1.0985E+05  0.000E+00  0.000E+00  0.000E+00  4.03006E+01  1.528E-01  2.000E+01  2.000E+04 -2.306E-02
   1   12   19     1    19    1.0985E+05 -6.0550E+02   1.1046E+05  0.000E+00  0.000E+00  0.000E+00  3.98237E+01  1.533E-01  2.000E+01  2.000E+04 -3.028E-02
   1   13   20     1    20    1.1046E+05 -2.4001E+02   1.1070E+05  0.000E+00  0.000E+00  0.000E+00  3.93468E+01  1.536E-01  2.000E+01  2.000E+04 -1.200E-02
   1   14   21     1    21    1.1070E+05 -2.9326E+02   1.1099E+05  0.000E+00  0.000E+00  0.000E+00  3.88698E+01  1.539E-01  2.000E+01  2.000E+04 -1.466E-02
   1   14   22     1    22    1.1099E+05  5.0965E+03   1.0589E+05  0.000E+00  0.000E+00  0.000E+00  3.83905E+01  1.519E-01  2.000E+01  2.000E+04  2.548E-01
   1    9   30     2     1    5.0000E+04 -4.9538E+01   5.0050E+04  0.000E+00  0.000E+00  0.000E+00  4.02409E+01  1.159E-01  2.000E+01  2.000E+04 -2.477E-03
   1    9   29     2     2    5.0050E+04 -2.9466E+02   5.0344E+04  0.000E+00  0.000E+00  0.000E+00  3.99911E+01  1.161E-01  2.000E+01  2.000E+04 -1.473E-02
   1    9   28     2     3    5.0344E+04 -4.0805E+02   5.0752E+04  0.000E+00  0.000E+00  0.000E+00  3.97416E+01  1.166E-01  2.000E+01  2.000E+04 -2.040E-02
   1    9   27     2     4    5.0752E+04 -7.6150E+02   5.1514E+04  0.000E+00  0.000E+00  0.000E+00  3.94924E+01  1.174E-01  2.000E+01  2.000E+04 -3.807E-02
   1   10   26     2     5    5.1514E+04 -1.5886E+02   5.1673E+04  0.000E+00  0.000E+00  0.000E+00  3.92431E+01  1.181E-01  2.000E+01  2.000E+04 -7.943E-03
   1   11   25     2     6    5.1673E+04 -9.4811E+01   5.1767E+04  0.000E+00  0.000E+00  0.000E+00  3.89932E+01  1.182E-01  2.000E+01  2.000E+04 -4.741E-03
   1   12   24     2     7    5.1767E+04 -2.9581E+02   5.2063E+04  0.000E+00  0.000E+00  0.000E+00  3.87435E+01  1.185E-01  2.000E+01  2.000E+04 -1.479E-02
   1   13   23     2     8    5.2063E+04 -3.8259E+01   5.2101E+04  0.000E+00  0.000E+00  0.000E+00  3.84937E+01  1.187E-01  2.000E+01  2.000E+04 -1.913E-03
   1   14   22     2     9    5.2101E+04  2.1326E+03   4.9969E+04  0.000E+00  0.000E+00  0.000E+00  3.82423E+01  1.173E-01  2.000E+01  2.000E+04  1.066E-01
   1   14   22     3     1    1.5586E+05 -8.4187E+03   1.6428E+05  0.000E+00  0.000E+00  0.000E+00  3.77147E+01  1.592E-01  2.000E+01  2.000E+04 -4.209E-01
   1   15   23     3     2    1.6428E+05 -3.4074E+02   1.6462E+05  0.000E+00  0.000E+00  0.000E+00  3.68284E+01  1.618E-01  2.000E+01  2.000E+04 -1.704E-02
   1   15   24     3     3    1.6462E+05 -1.8886E+02   1.6481E+05  0.000E+00  0.000E+00  0.000E+00  3.59397E+01  1.619E-01  2.000E+01  2.000E+04 -9.443E-03
   1   15   25     3     4    1.6481E+05 -1.9296E+02   1.6500E+05  0.000E+00  0.000E+00  0.000E+00  3.50509E+01  1.620E-01  2.000E+01  2.000E+04 -9.648E-03
   1   15   26     3     5    1.6500E+05 -2.4753E+02   1.6525E+05  0.000E+00  0.000E+00  0.000E+00  3.41622E+01  1.622E-01  2.000E+01  2.000E+04 -1.238E-02
   1   16   27     3     6    1.6525E+05 -2.6383E+02   1.6551E+05  0.000E+00  0.000E+00  0.000E+00  3.32734E+01  1.623E-01  2.000E+01  2.000E+04 -1.319E-02
   1   17   28     3     7    1.6551E+05 -1.2702E+03   1.6678E+05  0.000E+00  0.000E+00  0.000E+00  3.23850E+01  1.628E-01  2.000E+01  2.000E+04 -6.351E-02
   1   18   29     3     8    1.6678E+05 -2.5514E+03   1.6934E+05  0.000E+00  0.000E+00  0.000E+00  3.14972E+01  1.639E-01  2.000E+01  2.000E+04 -1.276E-01
   1   18   30     3     9    1.6934E+05 -2.9229E+03   1.7226E+05  0.000E+00  0.000E+00  0.000E+00  3.06099E+01  1.655E-01  2.000E+01  2.000E+04 -1.461E-01



1
              HEAD IN LAYER   1 AT END OF TIME STEP   1 IN STRESS PERIOD    7
  ---------------------------------------------------------------------------

          1      2      3      4      5      6      7      8      9     10
         11     12     13     14     15     16     17     18     19     20
         21     22     23     24     25     26     27     28     29     30
 .........................................................................
   1  ****** ****** ****** ****** ****** ****** ****** ****** ****** ******
      ****** ****** ****** ****** ****** ****** ****** ****** ****** ******
      ****** ****** ****** ****** ****** ****** ****** ****** ****** ******
   2  ****** ****** ****** ****** ****** ****** ****** ****** ****** ******
      ****** ****** ****** ****** ****** ****** ****** ****** ****** ******
      ****** ****** ****** ****** ****** ****** ****** ****** ****** ******
   3  ****** ****** ****** ****** ****** ****** ****** ****** ****** ******
      ****** ****** ****** ****** ****** ****** ****** ****** ****** ******
      ****** ****** ****** ****** ****** ****** ****** ****** ****** ******
   4  ****** ****** ****** ****** ****** ****** ****** ****** ****** ******
      ****** ****** ****** ****** ****** ****** ****** ****** ****** ******
      ****** ****** ****** ****** ****** ****** ****** ****** ****** ******
   5  ****** ****** ****** ****** ****** ****** ****** ****** ****** ******
      ****** ****** ****** ****** ****** ****** ****** ****** ****** ******
      ****** ****** ****** ****** ****** ****** ****** ****** ****** ******
   6  ****** ****** ****** ****** ****** ****** ****** ****** ****** ******
      ****** ****** ****** ****** ****** ****** ****** ****** ****** ******
      ****** ****** ****** ****** ****** ****** ****** ****** ****** ******
   7  ****** ****** ****** ****** ****** ****** ****** ****** ****** ******
      ****** ****** ****** ****** ****** ****** ****** ****** ****** ******
      ****** ****** ****** ****** ****** ****** ****** ****** ****** ******
   8  ****** ****** ****** ****** ****** ****** ****** ****** ****** ******
      ****** ****** ****** ****** ****** ****** ****** ****** ****** ******
      ****** ****** ****** ****** ****** ****** ****** ****** ****** ******
   9  ****** ****** ****** ****** ****** ****** ****** ****** ****** ******
      ****** ****** ****** ****** ****** ****** ****** ****** ****** ******
      ****** ****** ****** ****** ****** ****** ****** ****** ****** ******
  10  ****** ****** ****** ****** ****** ****** ****** ****** ****** ******
      ****** ****** ****** ****** ****** ****** ****** ****** ****** ******
      ****** ****** ****** ****** ****** ****** ****** ****** ****** ******
  11  ****** ****** ****** ****** ****** ****** ****** ****** ****** ******
      ****** ****** ****** ****** ****** ****** ****** ****** ****** ******
      ****** ****** ****** ****** ****** ****** ****** ****** ****** ******
  12  ****** ****** ****** ****** ****** ****** ****** ****** ****** ******
      ****** ****** ****** ****** ****** ****** ****** ****** ****** ******
      ****** ****** ****** ****** ****** ****** ****** ****** ****** ******
  13  ****** ****** ****** ****** ****** ****** ****** ****** ****** ******
      ****** ****** ****** ****** ****** ****** ****** ****** ****** ******
      ****** ****** ****** ****** ****** ****** ****** ****** ****** ******
  14  ****** ****** ****** ****** ****** ****** ****** ****** ****** ******
      ****** ****** ****** ****** ****** ****** ****** ****** ****** ******
      ****** ****** ****** ****** ****** ****** ****** ****** ****** ******
  15  ****** ****** ****** ****** ****** ****** ****** ****** ****** ******
      ****** ****** ****** ****** ****** ****** ****** ****** ****** ******
      ****** ****** ****** ****** ****** ****** ****** ****** ****** ******
  16  ****** ****** ****** ****** ****** ****** ****** ****** ****** ******
      ****** ****** ****** ****** ****** ****** ****** ****** ****** ******
      ****** ****** ****** ****** ****** ****** ****** ****** ****** ******
  17  ****** ****** ****** ****** ****** ****** ****** ****** ****** ******
      ****** ****** ****** ****** ****** ****** ****** ****** ****** ******
      ****** ****** ****** ****** ****** ****** ****** ****** ****** ******
  18  ****** ****** ****** ****** ****** ****** ****** ****** ****** ******
      ****** ****** ****** ****** ****** ****** ****** ****** ****** ******
      ****** ****** ****** ****** ****** ****** ****** ****** ****** ******
  19  ****** ****** ****** ****** ****** ****** ****** ****** ****** ******
      ****** ****** ****** ****** ****** ****** ****** ****** ****** ******
      ****** ****** ****** ****** ****** ****** ****** ****** ****** ******
  20  ****** ****** ****** ****** ****** ****** ****** ****** ****** ******
      ****** ****** ****** ****** ****** ****** ****** ****** ****** ******
      ****** ****** ****** ****** ****** ****** ****** ****** ****** ******
  21  ****** ****** ****** ****** ****** ****** ****** ****** ****** ******
      ****** ****** ****** ****** ****** ****** ****** ****** ****** ******
      ****** ****** ****** ****** ****** ****** ****** ****** ****** ******
  22  ****** ****** ****** ****** ****** ****** ****** ****** ****** ******
      ****** ****** ****** ****** ****** ****** ****** ****** ****** ******
      ****** ****** ****** ****** ****** ****** ****** ****** ****** ******
  23  ****** ****** ****** ****** ****** ****** ****** ****** ****** ******
      ****** ****** ****** ****** ****** ****** ****** ****** ****** ******
      ****** ****** ****** ****** ****** ****** ****** ****** ****** ******
  24  ****** ****** ****** ****** ****** ****** ****** ****** ****** ******
      ****** ****** ****** ****** ****** ****** ****** ****** ****** ******
      ****** ****** ****** ****** ****** ****** ****** ****** ****** ******
  25  ****** ****** ****** ****** ****** ****** ****** ****** ****** ******
      ****** ****** ****** ****** ****** ****** ****** ****** ****** ******
      ****** ****** ****** ****** ****** ****** ****** ****** ****** ******

 HEAD WILL BE SAVED ON UNIT   51 AT END OF TIME STEP    1, STRESS PERIOD    7
1
  VOLUMETRIC BUDGET FOR ENTIRE MODEL AT END OF TIME STEP    1, STRESS PERIOD   7
  ------------------------------------------------------------------------------

     CUMULATIVE VOLUMES      L**3       RATES FOR THIS TIME STEP      L**3/T
     ------------------                 ------------------------

           IN:                                      IN:
           ---                                      ---
             STORAGE =    34188078.8811               STORAGE =       22574.4232
       CONSTANT HEAD =    17125294.2982         CONSTANT HEAD =       35113.6054
               WELLS =           0.0000                 WELLS =           0.0000
            RECHARGE =    15097200.0000              RECHARGE =           0.0000
      STREAM LEAKAGE =     4350115.5446        STREAM LEAKAGE =        9110.8244

            TOTAL IN =    70760688.7239              TOTAL IN =       66798.8529

          OUT:                                     OUT:
          ----                                     ----
             STORAGE =      768873.8218               STORAGE =           0.0000
       CONSTANT HEAD =           0.0000         CONSTANT HEAD =           0.0000
               WELLS =    22639556.4396                 WELLS =       35429.6658
            RECHARGE =           0.0000              RECHARGE =           0.0000
      STREAM LEAKAGE =    47352261.0979        STREAM LEAKAGE =       31369.1929

           TOTAL OUT =    70760691.3593             TOTAL OUT =       66798.8587

            IN - OUT =          -2.6354              IN - OUT =      -5.7327E-03

 PERCENT DISCREPANCY =          -0.00     PERCENT DISCREPANCY =          -0.00






         TIME SUMMARY AT END OF TIME STEP    1 IN STRESS PERIOD    7
                    SECONDS     MINUTES      HOURS       DAYS        YEARS
                    -----------------------------------------------------------
   TIME STEP LENGTH 7.86240E+06 1.31040E+05  2184.0      91.000     0.24914    
 STRESS PERIOD TIME 7.86240E+06 1.31040E+05  2184.0      91.000     0.24914    
         TOTAL TIME 5.52096E+07 9.20160E+05  15336.      639.00      1.7495    
1
1
                            STRESS PERIOD NO.    8, LENGTH =   91.00000    
                            -----------------------------------------------

                              NUMBER OF TIME STEPS =     1

                               MULTIPLIER FOR DELT =     1.500

                            INITIAL TIME STEP SIZE =   91.00000    

 WELL NO.  LAYER   ROW   COL   STRESS RATE         
 --------------------------------------------------
      1      1     16     16      -9666.    
      2      1      6     22      -5938.    
      3      1     19     13      -8939.    
      4      1      6     21     -0.1089E+05

      4 WELLS

                 RECHARGE =  1.000000E-03

 REUSING STREAM SEGMENT DATA FROM LAST STRESS PERIOD
 
 SOLVING FOR HEAD 


     6 CALLS TO PCG ROUTINE FOR TIME STEP   1 IN STRESS PERIOD    8
    22 TOTAL ITERATIONS

 OUTPUT CONTROL FOR STRESS PERIOD    8   TIME STEP    1
    SAVE BUDGET
    SAVE HEAD FOR ALL LAYERS
    PRINT HEAD FOR ALL LAYERS
 UBDSV2 SAVING "STREAMFLOW OUT  " ON UNIT  50 AT TIME STEP  1, STRESS PERIOD   8



 STREAM LISTING     PERIOD      8   STEP        1

 LAYER ROW COL. STREAM  RCH.  FLOW INTO     FLOW TO   FLOW OUT OF   OVRLND.     DIRECT     STREAM       STREAM     STREAM     STREAM   STREAMBED  STREAMBED
                SEG.NO.  NO.  STRM. RCH.    AQUIFER    STRM. RCH.    RUNOFF     PRECIP       ET          HEAD       DEPTH      WIDTH   CONDCTNC.   GRADIENT

   1   13    1     1     1    1.0000E+05 -1.7538E+03   1.0175E+05  0.000E+00  0.000E+00  0.000E+00  4.84068E+01  1.454E-01  2.000E+01  2.000E+04 -8.769E-02
   1   13    2     1     2    1.0175E+05 -2.7219E+03   1.0448E+05  0.000E+00  0.000E+00  0.000E+00  4.79314E+01  1.473E-01  2.000E+01  2.000E+04 -1.361E-01
   1   14    3     1     3    1.0448E+05 -4.5176E+02   1.0493E+05  0.000E+00  0.000E+00  0.000E+00  4.74555E+01  1.487E-01  2.000E+01  2.000E+04 -2.259E-02
   1   15    4     1     4    1.0493E+05 -4.1106E+02   1.0534E+05  0.000E+00  0.000E+00  0.000E+00  4.69786E+01  1.491E-01  2.000E+01  2.000E+04 -2.055E-02
   1   16    5     1     5    1.0534E+05 -1.3261E+03   1.0666E+05  0.000E+00  0.000E+00  0.000E+00  4.65021E+01  1.498E-01  2.000E+01  2.000E+04 -6.631E-02
   1   16    6     1     6    1.0666E+05 -8.1591E+02   1.0748E+05  0.000E+00  0.000E+00  0.000E+00  4.60257E+01  1.507E-01  2.000E+01  2.000E+04 -4.080E-02
   1   16    7     1     7    1.0748E+05 -7.4662E+02   1.0823E+05  0.000E+00  0.000E+00  0.000E+00  4.55491E+01  1.514E-01  2.000E+01  2.000E+04 -3.733E-02
   1   16    8     1     8    1.0823E+05 -6.5661E+02   1.0888E+05  0.000E+00  0.000E+00  0.000E+00  4.50724E+01  1.520E-01  2.000E+01  2.000E+04 -3.283E-02
   1   16    9     1     9    1.0888E+05 -5.1911E+02   1.0940E+05  0.000E+00  0.000E+00  0.000E+00  4.45956E+01  1.524E-01  2.000E+01  2.000E+04 -2.596E-02
   1   16   10     1    10    1.0940E+05 -3.1146E+02   1.0971E+05  0.000E+00  0.000E+00  0.000E+00  4.41187E+01  1.528E-01  2.000E+01  2.000E+04 -1.557E-02
   1   16   11     1    11    1.0971E+05  6.0809E+00   1.0971E+05  0.000E+00  0.000E+00  0.000E+00  4.36416E+01  1.529E-01  2.000E+01  2.000E+04  3.040E-04
   1   16   12     1    12    1.0971E+05  7.2412E+02   1.0898E+05  0.000E+00  0.000E+00  0.000E+00  4.31640E+01  1.526E-01  2.000E+01  2.000E+04  3.621E-02
   1   15   13     1    13    1.0898E+05  4.8314E+02   1.0850E+05  0.000E+00  0.000E+00  0.000E+00  4.26862E+01  1.521E-01  2.000E+01  2.000E+04  2.416E-02
   1   14   14     1    14    1.0850E+05  8.0788E+01   1.0842E+05  0.000E+00  0.000E+00  0.000E+00  4.22087E+01  1.519E-01  2.000E+01  2.000E+04  4.039E-03
   1   13   15     1    15    1.0842E+05 -5.8010E+02   1.0900E+05  0.000E+00  0.000E+00  0.000E+00  4.17316E+01  1.521E-01  2.000E+01  2.000E+04 -2.900E-02
   1   12   16     1    16    1.0900E+05 -1.6050E+03   1.1061E+05  0.000E+00  0.000E+00  0.000E+00  4.12553E+01  1.530E-01  2.000E+01  2.000E+04 -8.025E-02
   1   12   17     1    17    1.1061E+05 -6.8335E+02   1.1129E+05  0.000E+00  0.000E+00  0.000E+00  4.07790E+01  1.540E-01  2.000E+01  2.000E+04 -3.417E-02
   1   12   18     1    18    1.1129E+05 -5.7547E+02   1.1186E+05  0.000E+00  0.000E+00  0.000E+00  4.03022E+01  1.545E-01  2.000E+01  2.000E+04 -2.877E-02
   1   12   19     1    19    1.1186E+05 -7.4964E+02   1.1261E+05  0.000E+00  0.000E+00  0.000E+00  3.98255E+01  1.550E-01  2.000E+01  2.000E+04 -3.748E-02
   1   13   20     1    20    1.1261E+05 -4.1503E+02   1.1303E+05  0.000E+00  0.000E+00  0.000E+00  3.93487E+01  1.555E-01  2.000E+01  2.000E+04 -2.075E-02
   1   14   21     1    21    1.1303E+05 -4.4908E+02   1.1348E+05  0.000E+00  0.000E+00  0.000E+00  3.88718E+01  1.559E-01  2.000E+01  2.000E+04 -2.245E-02
   1   14   22     1    22    1.1348E+05  5.0496E+03   1.0843E+05  0.000E+00  0.000E+00  0.000E+00  3.83926E+01  1.540E-01  2.000E+01  2.000E+04  2.525E-01
   1    9   30     2     1    5.0000E+04 -2.1076E+02   5.0211E+04  0.000E+00  0.000E+00  0.000E+00  4.02410E+01  1.160E-01  2.000E+01  2.000E+04 -1.054E-02
   1    9   29     2     2    5.0211E+04 -4.5299E+02   5.0664E+04  0.000E+00  0.000E+00  0.000E+00  3.99915E+01  1.165E-01  2.000E+01  2.000E+04 -2.265E-02
   1    9   28     2     3    5.0664E+04 -5.6053E+02   5.1224E+04  0.000E+00  0.000E+00  0.000E+00  3.97422E+01  1.172E-01  2.000E+01  2.000E+04 -2.803E-02
   1    9   27     2     4    5.1224E+04 -9.3503E+02   5.2159E+04  0.000E+00  0.000E+00  0.000E+00  3.94932E+01  1.182E-01  2.000E+01  2.000E+04 -4.675E-02
   1   10   26     2     5    5.2159E+04 -3.6059E+02   5.2520E+04  0.000E+00  0.000E+00  0.000E+00  3.92441E+01  1.191E-01  2.000E+01  2.000E+04 -1.803E-02
   1   11   25     2     6    5.2520E+04 -2.9545E+02   5.2815E+04  0.000E+00  0.000E+00  0.000E+00  3.89945E+01  1.195E-01  2.000E+01  2.000E+04 -1.477E-02
   1   12   24     2     7    5.2815E+04 -4.7782E+02   5.3293E+04  0.000E+00  0.000E+00  0.000E+00  3.87451E+01  1.201E-01  2.000E+01  2.000E+04 -2.389E-02
   1   13   23     2     8    5.3293E+04 -1.1209E+02   5.3405E+04  0.000E+00  0.000E+00  0.000E+00  3.84955E+01  1.205E-01  2.000E+01  2.000E+04 -5.604E-03
   1   14   22     2     9    5.3405E+04  2.0801E+03   5.1325E+04  0.000E+00  0.000E+00  0.000E+00  3.82441E+01  1.191E-01  2.000E+01  2.000E+04  1.040E-01
   1   14   22     3     1    1.5975E+05 -8.4612E+03   1.6821E+05  0.000E+00  0.000E+00  0.000E+00  3.77171E+01  1.615E-01  2.000E+01  2.000E+04 -4.231E-01
   1   15   23     3     2    1.6821E+05 -4.0445E+02   1.6862E+05  0.000E+00  0.000E+00  0.000E+00  3.68308E+01  1.641E-01  2.000E+01  2.000E+04 -2.022E-02
   1   15   24     3     3    1.6862E+05 -2.4913E+02   1.6887E+05  0.000E+00  0.000E+00  0.000E+00  3.59421E+01  1.643E-01  2.000E+01  2.000E+04 -1.246E-02
   1   15   25     3     4    1.6887E+05 -2.5500E+02   1.6912E+05  0.000E+00  0.000E+00  0.000E+00  3.50533E+01  1.644E-01  2.000E+01  2.000E+04 -1.275E-02
   1   15   26     3     5    1.6912E+05 -3.2205E+02   1.6945E+05  0.000E+00  0.000E+00  0.000E+00  3.41646E+01  1.646E-01  2.000E+01  2.000E+04 -1.610E-02
   1   16   27     3     6    1.6945E+05 -3.4543E+02   1.6979E+05  0.000E+00  0.000E+00  0.000E+00  3.32759E+01  1.648E-01  2.000E+01  2.000E+04 -1.727E-02
   1   17   28     3     7    1.6979E+05 -1.4731E+03   1.7126E+05  0.000E+00  0.000E+00  0.000E+00  3.23876E+01  1.653E-01  2.000E+01  2.000E+04 -7.366E-02
   1   18   29     3     8    1.7126E+05 -2.7152E+03   1.7398E+05  0.000E+00  0.000E+00  0.000E+00  3.14999E+01  1.666E-01  2.000E+01  2.000E+04 -1.358E-01
   1   18   30     3     9    1.7398E+05 -3.0686E+03   1.7705E+05  0.000E+00  0.000E+00  0.000E+00  3.06127E+01  1.682E-01  2.000E+01  2.000E+04 -1.534E-01



1
              HEAD IN LAYER   1 AT END OF TIME STEP   1 IN STRESS PERIOD    8
  ---------------------------------------------------------------------------

          1      2      3      4      5      6      7      8      9     10
         11     12     13     14     15     16     17     18     19     20
         21     22     23     24     25     26     27     28     29     30
 .........................................................................
   1  ****** ****** ****** ****** ****** ****** ****** ****** ****** ******
      ****** ****** ****** ****** ****** ****** ****** ****** ****** ******
      ****** ****** ****** ****** ****** ****** ****** ****** ****** ******
   2  ****** ****** ****** ****** ****** ****** ****** ****** ****** ******
      ****** ****** ****** ****** ****** ****** ****** ****** ****** ******
      ****** ****** ****** ****** ****** ****** ****** ****** ****** ******
   3  ****** ****** ****** ****** ****** ****** ****** ****** ****** ******
      ****** ****** ****** ****** ****** ****** ****** ****** ****** ******
      ****** ****** ****** ****** ****** ****** ****** ****** ****** ******
   4  ****** ****** ****** ****** ****** ****** ****** ****** ****** ******
      ****** ****** ****** ****** ****** ****** ****** ****** ****** ******
      ****** ****** ****** ****** ****** ****** ****** ****** ****** ******
   5  ****** ****** ****** ****** ****** ****** ****** ****** ****** ******
      ****** ****** ****** ****** ****** ****** ****** ****** ****** ******
      ****** ****** ****** ****** ****** ****** ****** ****** ****** ******
   6  ****** ****** ****** ****** ****** ****** ****** ****** ****** ******
      ****** ****** ****** ****** ****** ****** ****** ****** ****** ******
      ****** ****** ****** ****** ****** ****** ****** ****** ****** ******
   7  ****** ****** ****** ****** ****** ****** ****** ****** ****** ******
      ****** ****** ****** ****** ****** ****** ****** ****** ****** ******
      ****** ****** ****** ****** ****** ****** ****** ****** ****** ******
   8  ****** ****** ****** ****** ****** ****** ****** ****** ****** ******
      ****** ****** ****** ****** ****** ****** ****** ****** ****** ******
      ****** ****** ****** ****** ****** ****** ****** ****** ****** ******
   9  ****** ****** ****** ****** ****** ****** ****** ****** ****** ******
      ****** ****** ****** ****** ****** ****** ****** ****** ****** ******
      ****** ****** ****** ****** ****** ****** ****** ****** ****** ******
  10  ****** ****** ****** ****** ****** ****** ****** ****** ****** ******
      ****** ****** ****** ****** ****** ****** ****** ****** ****** ******
      ****** ****** ****** ****** ****** ****** ****** ****** ****** ******
  11  ****** ****** ****** ****** ****** ****** ****** ****** ****** ******
      ****** ****** ****** ****** ****** ****** ****** ****** ****** ******
      ****** ****** ****** ****** ****** ****** ****** ****** ****** ******
  12  ****** ****** ****** ****** ****** ****** ****** ****** ****** ******
      ****** ****** ****** ****** ****** ****** ****** ****** ****** ******
      ****** ****** ****** ****** ****** ****** ****** ****** ****** ******
  13  ****** ****** ****** ****** ****** ****** ****** ****** ****** ******
      ****** ****** ****** ****** ****** ****** ****** ****** ****** ******
      ****** ****** ****** ****** ****** ****** ****** ****** ****** ******
  14  ****** ****** ****** ****** ****** ****** ****** ****** ****** ******
      ****** ****** ****** ****** ****** ****** ****** ****** ****** ******
      ****** ****** ****** ****** ****** ****** ****** ****** ****** ******
  15  ****** ****** ****** ****** ****** ****** ****** ****** ****** ******
      ****** ****** ****** ****** ****** ****** ****** ****** ****** ******
      ****** ****** ****** ****** ****** ****** ****** ****** ****** ******
  16  ****** ****** ****** ****** ****** ****** ****** ****** ****** ******
      ****** ****** ****** ****** ****** ****** ****** ****** ****** ******
      ****** ****** ****** ****** ****** ****** ****** ****** ****** ******
  17  ****** ****** ****** ****** ****** ****** ****** ****** ****** ******
      ****** ****** ****** ****** ****** ****** ****** ****** ****** ******
      ****** ****** ****** ****** ****** ****** ****** ****** ****** ******
  18  ****** ****** ****** ****** ****** ****** ****** ****** ****** ******
      ****** ****** ****** ****** ****** ****** ****** ****** ****** ******
      ****** ****** ****** ****** ****** ****** ****** ****** ****** ******
  19  ****** ****** ****** ****** ****** ****** ****** ****** ****** ******
      ****** ****** ****** ****** ****** ****** ****** ****** ****** ******
      ****** ****** ****** ****** ****** ****** ****** ****** ****** ******
  20  ****** ****** ****** ****** ****** ****** ****** ****** ****** ******
      ****** ****** ****** ****** ****** ****** ****** ****** ****** ******
      ****** ****** ****** ****** ****** ****** ****** ****** ****** ******
  21  ****** ****** ****** ****** ****** ****** ****** ****** ****** ******
      ****** ****** ****** ****** ****** ****** ****** ****** ****** ******
      ****** ****** ****** ****** ****** ****** ****** ****** ****** ******
  22  ****** ****** ****** ****** ****** ****** ****** ****** ****** ******
      ****** ****** ****** ****** ****** ****** ****** ****** ****** ******
      ****** ****** ****** ****** ****** ****** ****** ****** ****** ******
  23  ****** ****** ****** ****** ****** ****** ****** ****** ****** ******
      ****** ****** ****** ****** ****** ****** ****** ****** ****** ******
      ****** ****** ****** ****** ****** ****** ****** ****** ****** ******
  24  ****** ****** ****** ****** ****** ****** ****** ****** ****** ******
      ****** ****** ****** ****** ****** ****** ****** ****** ****** ******
      ****** ****** ****** ****** ****** ****** ****** ****** ****** ******
  25  ****** ****** ****** ****** ****** ****** ****** ****** ****** ******
      ****** ****** ****** ****** ****** ****** ****** ****** ****** ******
      ****** ****** ****** ****** ****** ****** ****** ****** ****** ******

 HEAD WILL BE SAVED ON UNIT   51 AT END OF TIME STEP    1, STRESS PERIOD    8
1
  VOLUMETRIC BUDGET FOR ENTIRE MODEL AT END OF TIME STEP    1, STRESS PERIOD   8
  ------------------------------------------------------------------------------

     CUMULATIVE VOLUMES      L**3       RATES FOR THIS TIME STEP      L**3/T
     ------------------                 ------------------------

           IN:                                      IN:
           ---                                      ---
             STORAGE =    34327744.3055               STORAGE =        1534.7849
       CONSTANT HEAD =    20295752.4076         CONSTANT HEAD =       34840.1990
               WELLS =           0.0000                 WELLS =           0.0000
            RECHARGE =    17608800.0000              RECHARGE =       27600.0000
      STREAM LEAKAGE =     5116680.7935        STREAM LEAKAGE =        8423.7939

            TOTAL IN =    77348977.5067              TOTAL IN =       72398.7778

          OUT:                                     OUT:
          ----                                     ----
             STORAGE =      905156.3476               STORAGE =        1497.6102
       CONSTANT HEAD =           0.0000         CONSTANT HEAD =           0.0000
               WELLS =    25863656.0265                 WELLS =       35429.6658
            RECHARGE =           0.0000              RECHARGE =           0.0000
      STREAM LEAKAGE =    50580167.0044        STREAM LEAKAGE =       35471.4935

           TOTAL OUT =    77348979.3785             TOTAL OUT =       72398.7694

            IN - OUT =          -1.8718              IN - OUT =       8.3915E-03

 PERCENT DISCREPANCY =          -0.00     PERCENT DISCREPANCY =           0.00






         TIME SUMMARY AT END OF TIME STEP    1 IN STRESS PERIOD    8
                    SECONDS     MINUTES      HOURS       DAYS        YEARS
                    -----------------------------------------------------------
   TIME STEP LENGTH 7.86240E+06 1.31040E+05  2184.0      91.000     0.24914    
 STRESS PERIOD TIME 7.86240E+06 1.31040E+05  2184.0      91.000     0.24914    
         TOTAL TIME 6.30720E+07 1.05120E+06  17520.      730.00      1.9986    
1
1
                            STRESS PERIOD NO.    9, LENGTH =   92.00000    
                            -----------------------------------------------

                              NUMBER OF TIME STEPS =     1

                               MULTIPLIER FOR DELT =     1.500

                            INITIAL TIME STEP SIZE =   92.00000    

 WELL NO.  LAYER   ROW   COL   STRESS RATE         
 --------------------------------------------------
      1      1     16     16      -9666.    
      2      1      6     22      -5938.    
      3      1     19     13      -8939.    
      4      1      6     21     -0.1089E+05

      4 WELLS

                 RECHARGE =  5.000000E-04

 REUSING STREAM SEGMENT DATA FROM LAST STRESS PERIOD
 
 SOLVING FOR HEAD 


     6 CALLS TO PCG ROUTINE FOR TIME STEP   1 IN STRESS PERIOD    9
    23 TOTAL ITERATIONS

 OUTPUT CONTROL FOR STRESS PERIOD    9   TIME STEP    1
    SAVE BUDGET
    SAVE HEAD FOR ALL LAYERS
    PRINT HEAD FOR ALL LAYERS
 UBDSV2 SAVING "STREAMFLOW OUT  " ON UNIT  50 AT TIME STEP  1, STRESS PERIOD   9



 STREAM LISTING     PERIOD      9   STEP        1

 LAYER ROW COL. STREAM  RCH.  FLOW INTO     FLOW TO   FLOW OUT OF   OVRLND.     DIRECT     STREAM       STREAM     STREAM     STREAM   STREAMBED  STREAMBED
                SEG.NO.  NO.  STRM. RCH.    AQUIFER    STRM. RCH.    RUNOFF     PRECIP       ET          HEAD       DEPTH      WIDTH   CONDCTNC.   GRADIENT

   1   13    1     1     1    1.0000E+05 -1.5380E+03   1.0154E+05  0.000E+00  0.000E+00  0.000E+00  4.84067E+01  1.453E-01  2.000E+01  2.000E+04 -7.690E-02
   1   13    2     1     2    1.0154E+05 -2.4775E+03   1.0402E+05  0.000E+00  0.000E+00  0.000E+00  4.79311E+01  1.470E-01  2.000E+01  2.000E+04 -1.239E-01
   1   14    3     1     3    1.0402E+05 -3.8069E+02   1.0440E+05  0.000E+00  0.000E+00  0.000E+00  4.74551E+01  1.483E-01  2.000E+01  2.000E+04 -1.903E-02
   1   15    4     1     4    1.0440E+05 -3.3896E+02   1.0474E+05  0.000E+00  0.000E+00  0.000E+00  4.69781E+01  1.486E-01  2.000E+01  2.000E+04 -1.695E-02
   1   16    5     1     5    1.0474E+05 -1.1325E+03   1.0587E+05  0.000E+00  0.000E+00  0.000E+00  4.65015E+01  1.492E-01  2.000E+01  2.000E+04 -5.662E-02
   1   16    6     1     6    1.0587E+05 -6.9527E+02   1.0656E+05  0.000E+00  0.000E+00  0.000E+00  4.60250E+01  1.500E-01  2.000E+01  2.000E+04 -3.476E-02
   1   16    7     1     7    1.0656E+05 -6.2972E+02   1.0719E+05  0.000E+00  0.000E+00  0.000E+00  4.55483E+01  1.505E-01  2.000E+01  2.000E+04 -3.149E-02
   1   16    8     1     8    1.0719E+05 -5.4124E+02   1.0773E+05  0.000E+00  0.000E+00  0.000E+00  4.50715E+01  1.510E-01  2.000E+01  2.000E+04 -2.706E-02
   1   16    9     1     9    1.0773E+05 -4.0534E+02   1.0814E+05  0.000E+00  0.000E+00  0.000E+00  4.45946E+01  1.514E-01  2.000E+01  2.000E+04 -2.027E-02
   1   16   10     1    10    1.0814E+05 -1.9970E+02   1.0834E+05  0.000E+00  0.000E+00  0.000E+00  4.41176E+01  1.517E-01  2.000E+01  2.000E+04 -9.985E-03
   1   16   11     1    11    1.0834E+05  1.1687E+02   1.0822E+05  0.000E+00  0.000E+00  0.000E+00  4.36404E+01  1.517E-01  2.000E+01  2.000E+04  5.843E-03
   1   16   12     1    12    1.0822E+05  9.1387E+02   1.0731E+05  0.000E+00  0.000E+00  0.000E+00  4.31627E+01  1.513E-01  2.000E+01  2.000E+04  4.569E-02
   1   15   13     1    13    1.0731E+05  6.9431E+02   1.0661E+05  0.000E+00  0.000E+00  0.000E+00  4.26847E+01  1.506E-01  2.000E+01  2.000E+04  3.472E-02
   1   14   14     1    14    1.0661E+05  3.0563E+02   1.0631E+05  0.000E+00  0.000E+00  0.000E+00  4.22070E+01  1.502E-01  2.000E+01  2.000E+04  1.528E-02
   1   13   15     1    15    1.0631E+05 -3.4916E+02   1.0666E+05  0.000E+00  0.000E+00  0.000E+00  4.17298E+01  1.502E-01  2.000E+01  2.000E+04 -1.746E-02
   1   12   16     1    16    1.0666E+05 -1.3653E+03   1.0802E+05  0.000E+00  0.000E+00  0.000E+00  4.12532E+01  1.509E-01  2.000E+01  2.000E+04 -6.826E-02
   1   12   17     1    17    1.0802E+05 -5.1893E+02   1.0854E+05  0.000E+00  0.000E+00  0.000E+00  4.07767E+01  1.517E-01  2.000E+01  2.000E+04 -2.595E-02
   1   12   18     1    18    1.0854E+05 -4.1866E+02   1.0896E+05  0.000E+00  0.000E+00  0.000E+00  4.02998E+01  1.521E-01  2.000E+01  2.000E+04 -2.093E-02
   1   12   19     1    19    1.0896E+05 -5.6078E+02   1.0952E+05  0.000E+00  0.000E+00  0.000E+00  3.98230E+01  1.525E-01  2.000E+01  2.000E+04 -2.804E-02
   1   13   20     1    20    1.0952E+05 -2.4023E+02   1.0976E+05  0.000E+00  0.000E+00  0.000E+00  3.93460E+01  1.529E-01  2.000E+01  2.000E+04 -1.201E-02
   1   14   21     1    21    1.0976E+05 -2.7638E+02   1.1004E+05  0.000E+00  0.000E+00  0.000E+00  3.88690E+01  1.531E-01  2.000E+01  2.000E+04 -1.382E-02
   1   14   22     1    22    1.1004E+05  5.0875E+03   1.0495E+05  0.000E+00  0.000E+00  0.000E+00  3.83897E+01  1.511E-01  2.000E+01  2.000E+04  2.544E-01
   1    9   30     2     1    5.0000E+04 -8.6582E+01   5.0087E+04  0.000E+00  0.000E+00  0.000E+00  4.02409E+01  1.159E-01  2.000E+01  2.000E+04 -4.329E-03
   1    9   29     2     2    5.0087E+04 -3.2854E+02   5.0415E+04  0.000E+00  0.000E+00  0.000E+00  3.99912E+01  1.162E-01  2.000E+01  2.000E+04 -1.643E-02
   1    9   28     2     3    5.0415E+04 -4.3406E+02   5.0849E+04  0.000E+00  0.000E+00  0.000E+00  3.97417E+01  1.167E-01  2.000E+01  2.000E+04 -2.170E-02
   1    9   27     2     4    5.0849E+04 -7.5658E+02   5.1606E+04  0.000E+00  0.000E+00  0.000E+00  3.94926E+01  1.176E-01  2.000E+01  2.000E+04 -3.783E-02
   1   10   26     2     5    5.1606E+04 -1.8549E+02   5.1791E+04  0.000E+00  0.000E+00  0.000E+00  3.92432E+01  1.182E-01  2.000E+01  2.000E+04 -9.274E-03
   1   11   25     2     6    5.1791E+04 -1.2802E+02   5.1919E+04  0.000E+00  0.000E+00  0.000E+00  3.89934E+01  1.184E-01  2.000E+01  2.000E+04 -6.401E-03
   1   12   24     2     7    5.1919E+04 -3.2387E+02   5.2243E+04  0.000E+00  0.000E+00  0.000E+00  3.87437E+01  1.187E-01  2.000E+01  2.000E+04 -1.619E-02
   1   13   23     2     8    5.2243E+04 -6.4800E+01   5.2308E+04  0.000E+00  0.000E+00  0.000E+00  3.84940E+01  1.190E-01  2.000E+01  2.000E+04 -3.240E-03
   1   14   22     2     9    5.2308E+04  2.1450E+03   5.0163E+04  0.000E+00  0.000E+00  0.000E+00  3.82426E+01  1.176E-01  2.000E+01  2.000E+04  1.073E-01
   1   14   22     3     1    1.5511E+05 -8.4207E+03   1.6353E+05  0.000E+00  0.000E+00  0.000E+00  3.77143E+01  1.587E-01  2.000E+01  2.000E+04 -4.210E-01
   1   15   23     3     2    1.6353E+05 -3.5169E+02   1.6389E+05  0.000E+00  0.000E+00  0.000E+00  3.68280E+01  1.613E-01  2.000E+01  2.000E+04 -1.758E-02
   1   15   24     3     3    1.6389E+05 -2.0603E+02   1.6409E+05  0.000E+00  0.000E+00  0.000E+00  3.59393E+01  1.615E-01  2.000E+01  2.000E+04 -1.030E-02
   1   15   25     3     4    1.6409E+05 -2.1166E+02   1.6430E+05  0.000E+00  0.000E+00  0.000E+00  3.50505E+01  1.616E-01  2.000E+01  2.000E+04 -1.058E-02
   1   15   26     3     5    1.6430E+05 -2.7443E+02   1.6458E+05  0.000E+00  0.000E+00  0.000E+00  3.41618E+01  1.618E-01  2.000E+01  2.000E+04 -1.372E-02
   1   16   27     3     6    1.6458E+05 -2.8936E+02   1.6487E+05  0.000E+00  0.000E+00  0.000E+00  3.32731E+01  1.619E-01  2.000E+01  2.000E+04 -1.447E-02
   1   17   28     3     7    1.6487E+05 -1.3193E+03   1.6619E+05  0.000E+00  0.000E+00  0.000E+00  3.23846E+01  1.624E-01  2.000E+01  2.000E+04 -6.597E-02
   1   18   29     3     8    1.6619E+05 -2.5386E+03   1.6872E+05  0.000E+00  0.000E+00  0.000E+00  3.14969E+01  1.635E-01  2.000E+01  2.000E+04 -1.269E-01
   1   18   30     3     9    1.6872E+05 -2.9360E+03   1.7166E+05  0.000E+00  0.000E+00  0.000E+00  3.06096E+01  1.651E-01  2.000E+01  2.000E+04 -1.468E-01



1
              HEAD IN LAYER   1 AT END OF TIME STEP   1 IN STRESS PERIOD    9
  ---------------------------------------------------------------------------

          1      2      3      4      5      6      7      8      9     10
         11     12     13     14     15     16     17     18     19     20
         21     22     23     24     25     26     27     28     29     30
 .........................................................................
   1  ****** ****** ****** ****** ****** ****** ****** ****** ****** ******
      ****** ****** ****** ****** ****** ****** ****** ****** ****** ******
      ****** ****** ****** ****** ****** ****** ****** ****** ****** ******
   2  ****** ****** ****** ****** ****** ****** ****** ****** ****** ******
      ****** ****** ****** ****** ****** ****** ****** ****** ****** ******
      ****** ****** ****** ****** ****** ****** ****** ****** ****** ******
   3  ****** ****** ****** ****** ****** ****** ****** ****** ****** ******
      ****** ****** ****** ****** ****** ****** ****** ****** ****** ******
      ****** ****** ****** ****** ****** ****** ****** ****** ****** ******
   4  ****** ****** ****** ****** ****** ****** ****** ****** ****** ******
      ****** ****** ****** ****** ****** ****** ****** ****** ****** ******
      ****** ****** ****** ****** ****** ****** ****** ****** ****** ******
   5  ****** ****** ****** ****** ****** ****** ****** ****** ****** ******
      ****** ****** ****** ****** ****** ****** ****** ****** ****** ******
      ****** ****** ****** ****** ****** ****** ****** ****** ****** ******
   6  ****** ****** ****** ****** ****** ****** ****** ****** ****** ******
      ****** ****** ****** ****** ****** ****** ****** ****** ****** ******
      ****** ****** ****** ****** ****** ****** ****** ****** ****** ******
   7  ****** ****** ****** ****** ****** ****** ****** ****** ****** ******
      ****** ****** ****** ****** ****** ****** ****** ****** ****** ******
      ****** ****** ****** ****** ****** ****** ****** ****** ****** ******
   8  ****** ****** ****** ****** ****** ****** ****** ****** ****** ******
      ****** ****** ****** ****** ****** ****** ****** ****** ****** ******
      ****** ****** ****** ****** ****** ****** ****** ****** ****** ******
   9  ****** ****** ****** ****** ****** ****** ****** ****** ****** ******
      ****** ****** ****** ****** ****** ****** ****** ****** ****** ******
      ****** ****** ****** ****** ****** ****** ****** ****** ****** ******
  10  ****** ****** ****** ****** ****** ****** ****** ****** ****** ******
      ****** ****** ****** ****** ****** ****** ****** ****** ****** ******
      ****** ****** ****** ****** ****** ****** ****** ****** ****** ******
  11  ****** ****** ****** ****** ****** ****** ****** ****** ****** ******
      ****** ****** ****** ****** ****** ****** ****** ****** ****** ******
      ****** ****** ****** ****** ****** ****** ****** ****** ****** ******
  12  ****** ****** ****** ****** ****** ****** ****** ****** ****** ******
      ****** ****** ****** ****** ****** ****** ****** ****** ****** ******
      ****** ****** ****** ****** ****** ****** ****** ****** ****** ******
  13  ****** ****** ****** ****** ****** ****** ****** ****** ****** ******
      ****** ****** ****** ****** ****** ****** ****** ****** ****** ******
      ****** ****** ****** ****** ****** ****** ****** ****** ****** ******
  14  ****** ****** ****** ****** ****** ****** ****** ****** ****** ******
      ****** ****** ****** ****** ****** ****** ****** ****** ****** ******
      ****** ****** ****** ****** ****** ****** ****** ****** ****** ******
  15  ****** ****** ****** ****** ****** ****** ****** ****** ****** ******
      ****** ****** ****** ****** ****** ****** ****** ****** ****** ******
      ****** ****** ****** ****** ****** ****** ****** ****** ****** ******
  16  ****** ****** ****** ****** ****** ****** ****** ****** ****** ******
      ****** ****** ****** ****** ****** ****** ****** ****** ****** ******
      ****** ****** ****** ****** ****** ****** ****** ****** ****** ******
  17  ****** ****** ****** ****** ****** ****** ****** ****** ****** ******
      ****** ****** ****** ****** ****** ****** ****** ****** ****** ******
      ****** ****** ****** ****** ****** ****** ****** ****** ****** ******
  18  ****** ****** ****** ****** ****** ****** ****** ****** ****** ******
      ****** ****** ****** ****** ****** ****** ****** ****** ****** ******
      ****** ****** ****** ****** ****** ****** ****** ****** ****** ******
  19  ****** ****** ****** ****** ****** ****** ****** ****** ****** ******
      ****** ****** ****** ****** ****** ****** ****** ****** ****** ******
      ****** ****** ****** ****** ****** ****** ****** ****** ****** ******
  20  ****** ****** ****** ****** ****** ****** ****** ****** ****** ******
      ****** ****** ****** ****** ****** ****** ****** ****** ****** ******
      ****** ****** ****** ****** ****** ****** ****** ****** ****** ******
  21  ****** ****** ****** ****** ****** ****** ****** ****** ****** ******
      ****** ****** ****** ****** ****** ****** ****** ****** ****** ******
      ****** ****** ****** ****** ****** ****** ****** ****** ****** ******
  22  ****** ****** ****** ****** ****** ****** ****** ****** ****** ******
      ****** ****** ****** ****** ****** ****** ****** ****** ****** ******
      ****** ****** ****** ****** ****** ****** ****** ****** ****** ******
  23  ****** ****** ****** ****** ****** ****** ****** ****** ****** ******
      ****** ****** ****** ****** ****** ****** ****** ****** ****** ******
      ****** ****** ****** ****** ****** ****** ****** ****** ****** ******
  24  ****** ****** ****** ****** ****** ****** ****** ****** ****** ******
      ****** ****** ****** ****** ****** ****** ****** ****** ****** ******
      ****** ****** ****** ****** ****** ****** ****** ****** ****** ******
  25  ****** ****** ****** ****** ****** ****** ****** ****** ****** ******
      ****** ****** ****** ****** ****** ****** ****** ****** ****** ******
      ****** ****** ****** ****** ****** ****** ****** ****** ****** ******

 HEAD WILL BE SAVED ON UNIT   51 AT END OF TIME STEP    1, STRESS PERIOD    9
1
  VOLUMETRIC BUDGET FOR ENTIRE MODEL AT END OF TIME STEP    1, STRESS PERIOD   9
  ------------------------------------------------------------------------------

     CUMULATIVE VOLUMES      L**3       RATES FOR THIS TIME STEP      L**3/T
     ------------------                 ------------------------

           IN:                                      IN:
           ---                                      ---
             STORAGE =    34996783.3821               STORAGE =        7272.1639
       CONSTANT HEAD =    23609448.2821         CONSTANT HEAD =       36018.4334
               WELLS =           0.0000                 WELLS =           0.0000
            RECHARGE =    18878400.0000              RECHARGE =       13800.0000
      STREAM LEAKAGE =     5968891.5858        STREAM LEAKAGE =        9263.1608

            TOTAL IN =    83453523.2500              TOTAL IN =       66353.7581

          OUT:                                     OUT:
          ----                                     ----
             STORAGE =      905156.3476               STORAGE =           0.0000
       CONSTANT HEAD =           0.0000         CONSTANT HEAD =           0.0000
               WELLS =    29123185.2791                 WELLS =       35429.6658
            RECHARGE =           0.0000              RECHARGE =           0.0000
      STREAM LEAKAGE =    53425183.5687        STREAM LEAKAGE =       30924.0931

           TOTAL OUT =    83453525.1954             TOTAL OUT =       66353.7589

            IN - OUT =          -1.9454              IN - OUT =      -7.9975E-04

 PERCENT DISCREPANCY =          -0.00     PERCENT DISCREPANCY =          -0.00






         TIME SUMMARY AT END OF TIME STEP    1 IN STRESS PERIOD    9
                    SECONDS     MINUTES      HOURS       DAYS        YEARS
                    -----------------------------------------------------------
   TIME STEP LENGTH 7.94880E+06 1.32480E+05  2208.0      92.000     0.25188    
 STRESS PERIOD TIME 7.94880E+06 1.32480E+05  2208.0      92.000     0.25188    
         TOTAL TIME 7.10208E+07 1.18368E+06  19728.      822.00      2.2505    
1
1
                            STRESS PERIOD NO.   10, LENGTH =   91.00000    
                            -----------------------------------------------

                              NUMBER OF TIME STEPS =     1

                               MULTIPLIER FOR DELT =     1.500

                            INITIAL TIME STEP SIZE =   91.00000    

 WELL NO.  LAYER   ROW   COL   STRESS RATE         
 --------------------------------------------------
      1      1     16     16      -9666.    
      2      1      6     22      -5938.    
      3      1     19     13      -8939.    
      4      1      6     21     -0.1089E+05

      4 WELLS

                 RECHARGE =  2.000000E-03

 REUSING STREAM SEGMENT DATA FROM LAST STRESS PERIOD
 
 SOLVING FOR HEAD 


     7 CALLS TO PCG ROUTINE FOR TIME STEP   1 IN STRESS PERIOD   10
    26 TOTAL ITERATIONS

 OUTPUT CONTROL FOR STRESS PERIOD   10   TIME STEP    1
    SAVE BUDGET
    SAVE HEAD FOR ALL LAYERS
    PRINT HEAD FOR ALL LAYERS
 UBDSV2 SAVING "STREAMFLOW OUT  " ON UNIT  50 AT TIME STEP  1, STRESS PERIOD  10



 STREAM LISTING     PERIOD     10   STEP        1

 LAYER ROW COL. STREAM  RCH.  FLOW INTO     FLOW TO   FLOW OUT OF   OVRLND.     DIRECT     STREAM       STREAM     STREAM     STREAM   STREAMBED  STREAMBED
                SEG.NO.  NO.  STRM. RCH.    AQUIFER    STRM. RCH.    RUNOFF     PRECIP       ET          HEAD       DEPTH      WIDTH   CONDCTNC.   GRADIENT

   1   13    1     1     1    1.0000E+05 -1.9894E+03   1.0199E+05  0.000E+00  0.000E+00  0.000E+00  4.84069E+01  1.455E-01  2.000E+01  2.000E+04 -9.947E-02
   1   13    2     1     2    1.0199E+05 -2.9778E+03   1.0497E+05  0.000E+00  0.000E+00  0.000E+00  4.79317E+01  1.477E-01  2.000E+01  2.000E+04 -1.489E-01
   1   14    3     1     3    1.0497E+05 -5.6703E+02   1.0553E+05  0.000E+00  0.000E+00  0.000E+00  4.74560E+01  1.492E-01  2.000E+01  2.000E+04 -2.835E-02
   1   15    4     1     4    1.0553E+05 -5.3821E+02   1.0607E+05  0.000E+00  0.000E+00  0.000E+00  4.69792E+01  1.496E-01  2.000E+01  2.000E+04 -2.691E-02
   1   16    5     1     5    1.0607E+05 -1.7509E+03   1.0782E+05  0.000E+00  0.000E+00  0.000E+00  4.65029E+01  1.506E-01  2.000E+01  2.000E+04 -8.754E-02
   1   16    6     1     6    1.0782E+05 -1.0571E+03   1.0888E+05  0.000E+00  0.000E+00  0.000E+00  4.60268E+01  1.518E-01  2.000E+01  2.000E+04 -5.286E-02
   1   16    7     1     7    1.0888E+05 -9.7380E+02   1.0985E+05  0.000E+00  0.000E+00  0.000E+00  4.55504E+01  1.526E-01  2.000E+01  2.000E+04 -4.869E-02
   1   16    8     1     8    1.0985E+05 -8.7987E+02   1.1073E+05  0.000E+00  0.000E+00  0.000E+00  4.50739E+01  1.534E-01  2.000E+01  2.000E+04 -4.399E-02
   1   16    9     1     9    1.1073E+05 -7.4243E+02   1.1148E+05  0.000E+00  0.000E+00  0.000E+00  4.45973E+01  1.541E-01  2.000E+01  2.000E+04 -3.712E-02
   1   16   10     1    10    1.1148E+05 -5.3698E+02   1.1201E+05  0.000E+00  0.000E+00  0.000E+00  4.41205E+01  1.546E-01  2.000E+01  2.000E+04 -2.685E-02
   1   16   11     1    11    1.1201E+05 -2.2387E+02   1.1224E+05  0.000E+00  0.000E+00  0.000E+00  4.36436E+01  1.549E-01  2.000E+01  2.000E+04 -1.119E-02
   1   16   12     1    12    1.1224E+05  3.4520E+02   1.1189E+05  0.000E+00  0.000E+00  0.000E+00  4.31662E+01  1.549E-01  2.000E+01  2.000E+04  1.726E-02
   1   15   13     1    13    1.1189E+05  1.0875E+02   1.1178E+05  0.000E+00  0.000E+00  0.000E+00  4.26888E+01  1.547E-01  2.000E+01  2.000E+04  5.438E-03
   1   14   14     1    14    1.1178E+05 -2.8698E+02   1.1207E+05  0.000E+00  0.000E+00  0.000E+00  4.22116E+01  1.548E-01  2.000E+01  2.000E+04 -1.435E-02
   1   13   15     1    15    1.1207E+05 -9.3162E+02   1.1300E+05  0.000E+00  0.000E+00  0.000E+00  4.17348E+01  1.553E-01  2.000E+01  2.000E+04 -4.658E-02
   1   12   16     1    16    1.1300E+05 -1.9260E+03   1.1493E+05  0.000E+00  0.000E+00  0.000E+00  4.12587E+01  1.565E-01  2.000E+01  2.000E+04 -9.630E-02
   1   12   17     1    17    1.1493E+05 -9.4368E+02   1.1587E+05  0.000E+00  0.000E+00  0.000E+00  4.07826E+01  1.576E-01  2.000E+01  2.000E+04 -4.718E-02
   1   12   18     1    18    1.1587E+05 -8.3930E+02   1.1671E+05  0.000E+00  0.000E+00  0.000E+00  4.03061E+01  1.584E-01  2.000E+01  2.000E+04 -4.197E-02
   1   12   19     1    19    1.1671E+05 -1.0784E+03   1.1779E+05  0.000E+00  0.000E+00  0.000E+00  3.98296E+01  1.591E-01  2.000E+01  2.000E+04 -5.392E-02
   1   13   20     1    20    1.1779E+05 -7.6084E+02   1.1855E+05  0.000E+00  0.000E+00  0.000E+00  3.93531E+01  1.599E-01  2.000E+01  2.000E+04 -3.804E-02
   1   14   21     1    21    1.1855E+05 -8.0072E+02   1.1935E+05  0.000E+00  0.000E+00  0.000E+00  3.88764E+01  1.605E-01  2.000E+01  2.000E+04 -4.004E-02
   1   14   22     1    22    1.1935E+05  4.9620E+03   1.1439E+05  0.000E+00  0.000E+00  0.000E+00  3.83975E+01  1.588E-01  2.000E+01  2.000E+04  2.481E-01
   1    9   30     2     1    5.0000E+04 -5.0043E+02   5.0500E+04  0.000E+00  0.000E+00  0.000E+00  4.02412E+01  1.162E-01  2.000E+01  2.000E+04 -2.502E-02
   1    9   29     2     2    5.0500E+04 -7.4008E+02   5.1241E+04  0.000E+00  0.000E+00  0.000E+00  3.99921E+01  1.171E-01  2.000E+01  2.000E+04 -3.700E-02
   1    9   28     2     3    5.1241E+04 -8.4473E+02   5.2085E+04  0.000E+00  0.000E+00  0.000E+00  3.97432E+01  1.182E-01  2.000E+01  2.000E+04 -4.224E-02
   1    9   27     2     4    5.2085E+04 -1.3086E+03   5.3394E+04  0.000E+00  0.000E+00  0.000E+00  3.94946E+01  1.196E-01  2.000E+01  2.000E+04 -6.543E-02
   1   10   26     2     5    5.3394E+04 -7.3777E+02   5.4132E+04  0.000E+00  0.000E+00  0.000E+00  3.92460E+01  1.210E-01  2.000E+01  2.000E+04 -3.689E-02
   1   11   25     2     6    5.4132E+04 -6.5587E+02   5.4788E+04  0.000E+00  0.000E+00  0.000E+00  3.89970E+01  1.220E-01  2.000E+01  2.000E+04 -3.279E-02
   1   12   24     2     7    5.4788E+04 -8.0158E+02   5.5589E+04  0.000E+00  0.000E+00  0.000E+00  3.87479E+01  1.229E-01  2.000E+01  2.000E+04 -4.008E-02
   1   13   23     2     8    5.5589E+04 -2.1342E+02   5.5803E+04  0.000E+00  0.000E+00  0.000E+00  3.84986E+01  1.236E-01  2.000E+01  2.000E+04 -1.067E-02
   1   14   22     2     9    5.5803E+04  1.9615E+03   5.3841E+04  0.000E+00  0.000E+00  0.000E+00  3.82474E+01  1.224E-01  2.000E+01  2.000E+04  9.807E-02
   1   14   22     3     1    1.6823E+05 -8.5466E+03   1.7678E+05  0.000E+00  0.000E+00  0.000E+00  3.77220E+01  1.665E-01  2.000E+01  2.000E+04 -4.273E-01
   1   15   23     3     2    1.7678E+05 -5.1410E+02   1.7729E+05  0.000E+00  0.000E+00  0.000E+00  3.68358E+01  1.691E-01  2.000E+01  2.000E+04 -2.571E-02
   1   15   24     3     3    1.7729E+05 -3.4314E+02   1.7763E+05  0.000E+00  0.000E+00  0.000E+00  3.59471E+01  1.693E-01  2.000E+01  2.000E+04 -1.716E-02
   1   15   25     3     4    1.7763E+05 -3.5219E+02   1.7799E+05  0.000E+00  0.000E+00  0.000E+00  3.50584E+01  1.695E-01  2.000E+01  2.000E+04 -1.761E-02
   1   15   26     3     5    1.7799E+05 -4.3663E+02   1.7842E+05  0.000E+00  0.000E+00  0.000E+00  3.41698E+01  1.698E-01  2.000E+01  2.000E+04 -2.183E-02
   1   16   27     3     6    1.7842E+05 -4.7515E+02   1.7890E+05  0.000E+00  0.000E+00  0.000E+00  3.32811E+01  1.700E-01  2.000E+01  2.000E+04 -2.376E-02
   1   17   28     3     7    1.7890E+05 -1.8398E+03   1.8074E+05  0.000E+00  0.000E+00  0.000E+00  3.23929E+01  1.707E-01  2.000E+01  2.000E+04 -9.199E-02
   1   18   29     3     8    1.8074E+05 -3.0896E+03   1.8383E+05  0.000E+00  0.000E+00  0.000E+00  3.15054E+01  1.721E-01  2.000E+01  2.000E+04 -1.545E-01
   1   18   30     3     9    1.8383E+05 -3.3611E+03   1.8719E+05  0.000E+00  0.000E+00  0.000E+00  3.06184E+01  1.739E-01  2.000E+01  2.000E+04 -1.681E-01



1
              HEAD IN LAYER   1 AT END OF TIME STEP   1 IN STRESS PERIOD   10
  ---------------------------------------------------------------------------

          1      2      3      4      5      6      7      8      9     10
         11     12     13     14     15     16     17     18     19     20
         21     22     23     24     25     26     27     28     29     30
 .........................................................................
   1  ****** ****** ****** ****** ****** ****** ****** ****** ****** ******
      ****** ****** ****** ****** ****** ****** ****** ****** ****** ******
      ****** ****** ****** ****** ****** ****** ****** ****** ****** ******
   2  ****** ****** ****** ****** ****** ****** ****** ****** ****** ******
      ****** ****** ****** ****** ****** ****** ****** ****** ****** ******
      ****** ****** ****** ****** ****** ****** ****** ****** ****** ******
   3  ****** ****** ****** ****** ****** ****** ****** ****** ****** ******
      ****** ****** ****** ****** ****** ****** ****** ****** ****** ******
      ****** ****** ****** ****** ****** ****** ****** ****** ****** ******
   4  ****** ****** ****** ****** ****** ****** ****** ****** ****** ******
      ****** ****** ****** ****** ****** ****** ****** ****** ****** ******
      ****** ****** ****** ****** ****** ****** ****** ****** ****** ******
   5  ****** ****** ****** ****** ****** ****** ****** ****** ****** ******
      ****** ****** ****** ****** ****** ****** ****** ****** ****** ******
      ****** ****** ****** ****** ****** ****** ****** ****** ****** ******
   6  ****** ****** ****** ****** ****** ****** ****** ****** ****** ******
      ****** ****** ****** ****** ****** ****** ****** ****** ****** ******
      ****** ****** ****** ****** ****** ****** ****** ****** ****** ******
   7  ****** ****** ****** ****** ****** ****** ****** ****** ****** ******
      ****** ****** ****** ****** ****** ****** ****** ****** ****** ******
      ****** ****** ****** ****** ****** ****** ****** ****** ****** ******
   8  ****** ****** ****** ****** ****** ****** ****** ****** ****** ******
      ****** ****** ****** ****** ****** ****** ****** ****** ****** ******
      ****** ****** ****** ****** ****** ****** ****** ****** ****** ******
   9  ****** ****** ****** ****** ****** ****** ****** ****** ****** ******
      ****** ****** ****** ****** ****** ****** ****** ****** ****** ******
      ****** ****** ****** ****** ****** ****** ****** ****** ****** ******
  10  ****** ****** ****** ****** ****** ****** ****** ****** ****** ******
      ****** ****** ****** ****** ****** ****** ****** ****** ****** ******
      ****** ****** ****** ****** ****** ****** ****** ****** ****** ******
  11  ****** ****** ****** ****** ****** ****** ****** ****** ****** ******
      ****** ****** ****** ****** ****** ****** ****** ****** ****** ******
      ****** ****** ****** ****** ****** ****** ****** ****** ****** ******
  12  ****** ****** ****** ****** ****** ****** ****** ****** ****** ******
      ****** ****** ****** ****** ****** ****** ****** ****** ****** ******
      ****** ****** ****** ****** ****** ****** ****** ****** ****** ******
  13  ****** ****** ****** ****** ****** ****** ****** ****** ****** ******
      ****** ****** ****** ****** ****** ****** ****** ****** ****** ******
      ****** ****** ****** ****** ****** ****** ****** ****** ****** ******
  14  ****** ****** ****** ****** ****** ****** ****** ****** ****** ******
      ****** ****** ****** ****** ****** ****** ****** ****** ****** ******
      ****** ****** ****** ****** ****** ****** ****** ****** ****** ******
  15  ****** ****** ****** ****** ****** ****** ****** ****** ****** ******
      ****** ****** ****** ****** ****** ****** ****** ****** ****** ******
      ****** ****** ****** ****** ****** ****** ****** ****** ****** ******
  16  ****** ****** ****** ****** ****** ****** ****** ****** ****** ******
      ****** ****** ****** ****** ****** ****** ****** ****** ****** ******
      ****** ****** ****** ****** ****** ****** ****** ****** ****** ******
  17  ****** ****** ****** ****** ****** ****** ****** ****** ****** ******
      ****** ****** ****** ****** ****** ****** ****** ****** ****** ******
      ****** ****** ****** ****** ****** ****** ****** ****** ****** ******
  18  ****** ****** ****** ****** ****** ****** ****** ****** ****** ******
      ****** ****** ****** ****** ****** ****** ****** ****** ****** ******
      ****** ****** ****** ****** ****** ****** ****** ****** ****** ******
  19  ****** ****** ****** ****** ****** ****** ****** ****** ****** ******
      ****** ****** ****** ****** ****** ****** ****** ****** ****** ******
      ****** ****** ****** ****** ****** ****** ****** ****** ****** ******
  20  ****** ****** ****** ****** ****** ****** ****** ****** ****** ******
      ****** ****** ****** ****** ****** ****** ****** ****** ****** ******
      ****** ****** ****** ****** ****** ****** ****** ****** ****** ******
  21  ****** ****** ****** ****** ****** ****** ****** ****** ****** ******
      ****** ****** ****** ****** ****** ****** ****** ****** ****** ******
      ****** ****** ****** ****** ****** ****** ****** ****** ****** ******
  22  ****** ****** ****** ****** ****** ****** ****** ****** ****** ******
      ****** ****** ****** ****** ****** ****** ****** ****** ****** ******
      ****** ****** ****** ****** ****** ****** ****** ****** ****** ******
  23  ****** ****** ****** ****** ****** ****** ****** ****** ****** ******
      ****** ****** ****** ****** ****** ****** ****** ****** ****** ******
      ****** ****** ****** ****** ****** ****** ****** ****** ****** ******
  24  ****** ****** ****** ****** ****** ****** ****** ****** ****** ******
      ****** ****** ****** ****** ****** ****** ****** ****** ****** ******
      ****** ****** ****** ****** ****** ****** ****** ****** ****** ******
  25  ****** ****** ****** ****** ****** ****** ****** ****** ****** ******
      ****** ****** ****** ****** ****** ****** ****** ****** ****** ******
      ****** ****** ****** ****** ****** ****** ****** ****** ****** ******

 HEAD WILL BE SAVED ON UNIT   51 AT END OF TIME STEP    1, STRESS PERIOD   10
1
  VOLUMETRIC BUDGET FOR ENTIRE MODEL AT END OF TIME STEP    1, STRESS PERIOD  10
  ------------------------------------------------------------------------------

     CUMULATIVE VOLUMES      L**3       RATES FOR THIS TIME STEP      L**3/T
     ------------------                 ------------------------

           IN:                                      IN:
           ---                                      ---
             STORAGE =    34996783.3821               STORAGE =           0.0000
       CONSTANT HEAD =    26618960.0793         CONSTANT HEAD =       33071.5582
               WELLS =           0.0000                 WELLS =           0.0000
            RECHARGE =    23901600.0000              RECHARGE =       55200.0000
      STREAM LEAKAGE =     6640234.3811        STREAM LEAKAGE =        7377.3934

            TOTAL IN =    92157577.8425              TOTAL IN =       95648.9516

          OUT:                                     OUT:
          ----                                     ----
             STORAGE =     2329628.7385               STORAGE =       15653.5428
       CONSTANT HEAD =           0.0000         CONSTANT HEAD =           0.0000
               WELLS =    32347284.8660                 WELLS =       35429.6658
            RECHARGE =           0.0000              RECHARGE =           0.0000
      STREAM LEAKAGE =    57480665.8302        STREAM LEAKAGE =       44565.7391

           TOTAL OUT =    92157579.4346             TOTAL OUT =       95648.9477

            IN - OUT =          -1.5921              IN - OUT =       3.8819E-03

 PERCENT DISCREPANCY =          -0.00     PERCENT DISCREPANCY =           0.00






         TIME SUMMARY AT END OF TIME STEP    1 IN STRESS PERIOD   10
                    SECONDS     MINUTES      HOURS       DAYS        YEARS
                    -----------------------------------------------------------
   TIME STEP LENGTH 7.86240E+06 1.31040E+05  2184.0      91.000     0.24914    
 STRESS PERIOD TIME 7.86240E+06 1.31040E+05  2184.0      91.000     0.24914    
         TOTAL TIME 7.88832E+07 1.31472E+06  21912.      913.00      2.4997    
1
1
                            STRESS PERIOD NO.   11, LENGTH =   91.00000    
                            -----------------------------------------------

                              NUMBER OF TIME STEPS =     1

                               MULTIPLIER FOR DELT =     1.500

                            INITIAL TIME STEP SIZE =   91.00000    

 WELL NO.  LAYER   ROW   COL   STRESS RATE         
 --------------------------------------------------
      1      1     16     16      -9666.    
      2      1      6     22      -5938.    
      3      1     19     13      -8939.    
      4      1      6     21     -0.1089E+05

      4 WELLS

                 RECHARGE =   0.00000    

 REUSING STREAM SEGMENT DATA FROM LAST STRESS PERIOD
 
 SOLVING FOR HEAD 


     7 CALLS TO PCG ROUTINE FOR TIME STEP   1 IN STRESS PERIOD   11
    26 TOTAL ITERATIONS

 OUTPUT CONTROL FOR STRESS PERIOD   11   TIME STEP    1
    SAVE BUDGET
    SAVE HEAD FOR ALL LAYERS
    PRINT HEAD FOR ALL LAYERS
 UBDSV2 SAVING "STREAMFLOW OUT  " ON UNIT  50 AT TIME STEP  1, STRESS PERIOD  11



 STREAM LISTING     PERIOD     11   STEP        1

 LAYER ROW COL. STREAM  RCH.  FLOW INTO     FLOW TO   FLOW OUT OF   OVRLND.     DIRECT     STREAM       STREAM     STREAM     STREAM   STREAMBED  STREAMBED
                SEG.NO.  NO.  STRM. RCH.    AQUIFER    STRM. RCH.    RUNOFF     PRECIP       ET          HEAD       DEPTH      WIDTH   CONDCTNC.   GRADIENT

   1   13    1     1     1    1.0000E+05 -1.4209E+03   1.0142E+05  0.000E+00  0.000E+00  0.000E+00  4.84066E+01  1.453E-01  2.000E+01  2.000E+04 -7.104E-02
   1   13    2     1     2    1.0142E+05 -2.3447E+03   1.0377E+05  0.000E+00  0.000E+00  0.000E+00  4.79310E+01  1.469E-01  2.000E+01  2.000E+04 -1.172E-01
   1   14    3     1     3    1.0377E+05 -3.3600E+02   1.0410E+05  0.000E+00  0.000E+00  0.000E+00  4.74549E+01  1.480E-01  2.000E+01  2.000E+04 -1.680E-02
   1   15    4     1     4    1.0410E+05 -2.9619E+02   1.0440E+05  0.000E+00  0.000E+00  0.000E+00  4.69779E+01  1.483E-01  2.000E+01  2.000E+04 -1.481E-02
   1   16    5     1     5    1.0440E+05 -1.0627E+03   1.0546E+05  0.000E+00  0.000E+00  0.000E+00  4.65012E+01  1.489E-01  2.000E+01  2.000E+04 -5.314E-02
   1   16    6     1     6    1.0546E+05 -6.4265E+02   1.0610E+05  0.000E+00  0.000E+00  0.000E+00  4.60246E+01  1.496E-01  2.000E+01  2.000E+04 -3.213E-02
   1   16    7     1     7    1.0610E+05 -5.7691E+02   1.0668E+05  0.000E+00  0.000E+00  0.000E+00  4.55479E+01  1.501E-01  2.000E+01  2.000E+04 -2.885E-02
   1   16    8     1     8    1.0668E+05 -4.8849E+02   1.0717E+05  0.000E+00  0.000E+00  0.000E+00  4.50710E+01  1.506E-01  2.000E+01  2.000E+04 -2.442E-02
   1   16    9     1     9    1.0717E+05 -3.5329E+02   1.0752E+05  0.000E+00  0.000E+00  0.000E+00  4.45941E+01  1.509E-01  2.000E+01  2.000E+04 -1.766E-02
   1   16   10     1    10    1.0752E+05 -1.4892E+02   1.0767E+05  0.000E+00  0.000E+00  0.000E+00  4.41171E+01  1.511E-01  2.000E+01  2.000E+04 -7.446E-03
   1   16   11     1    11    1.0767E+05  1.6600E+02   1.0750E+05  0.000E+00  0.000E+00  0.000E+00  4.36398E+01  1.511E-01  2.000E+01  2.000E+04  8.300E-03
   1   16   12     1    12    1.0750E+05  9.9125E+02   1.0651E+05  0.000E+00  0.000E+00  0.000E+00  4.31620E+01  1.507E-01  2.000E+01  2.000E+04  4.956E-02
   1   15   13     1    13    1.0651E+05  7.9775E+02   1.0572E+05  0.000E+00  0.000E+00  0.000E+00  4.26840E+01  1.499E-01  2.000E+01  2.000E+04  3.989E-02
   1   14   14     1    14    1.0572E+05  4.1985E+02   1.0530E+05  0.000E+00  0.000E+00  0.000E+00  4.22062E+01  1.494E-01  2.000E+01  2.000E+04  2.099E-02
   1   13   15     1    15    1.0530E+05 -2.3030E+02   1.0553E+05  0.000E+00  0.000E+00  0.000E+00  4.17288E+01  1.493E-01  2.000E+01  2.000E+04 -1.152E-02
   1   12   16     1    16    1.0553E+05 -1.2480E+03   1.0677E+05  0.000E+00  0.000E+00  0.000E+00  4.12522E+01  1.499E-01  2.000E+01  2.000E+04 -6.240E-02
   1   12   17     1    17    1.0677E+05 -4.3655E+02   1.0721E+05  0.000E+00  0.000E+00  0.000E+00  4.07756E+01  1.506E-01  2.000E+01  2.000E+04 -2.183E-02
   1   12   18     1    18    1.0721E+05 -3.3991E+02   1.0755E+05  0.000E+00  0.000E+00  0.000E+00  4.02987E+01  1.510E-01  2.000E+01  2.000E+04 -1.700E-02
   1   12   19     1    19    1.0755E+05 -4.6538E+02   1.0802E+05  0.000E+00  0.000E+00  0.000E+00  3.98218E+01  1.513E-01  2.000E+01  2.000E+04 -2.327E-02
   1   13   20     1    20    1.0802E+05 -1.4833E+02   1.0816E+05  0.000E+00  0.000E+00  0.000E+00  3.93447E+01  1.516E-01  2.000E+01  2.000E+04 -7.416E-03
   1   14   21     1    21    1.0816E+05 -2.0372E+02   1.0837E+05  0.000E+00  0.000E+00  0.000E+00  3.88676E+01  1.517E-01  2.000E+01  2.000E+04 -1.019E-02
   1   14   22     1    22    1.0837E+05  5.1070E+03   1.0326E+05  0.000E+00  0.000E+00  0.000E+00  3.83883E+01  1.496E-01  2.000E+01  2.000E+04  2.553E-01
   1    9   30     2     1    5.0000E+04 -1.2208E+01   5.0012E+04  0.000E+00  0.000E+00  0.000E+00  4.02409E+01  1.159E-01  2.000E+01  2.000E+04 -6.104E-04
   1    9   29     2     2    5.0012E+04 -2.5490E+02   5.0267E+04  0.000E+00  0.000E+00  0.000E+00  3.99911E+01  1.161E-01  2.000E+01  2.000E+04 -1.275E-02
   1    9   28     2     3    5.0267E+04 -3.6172E+02   5.0629E+04  0.000E+00  0.000E+00  0.000E+00  3.97415E+01  1.165E-01  2.000E+01  2.000E+04 -1.809E-02
   1    9   27     2     4    5.0629E+04 -6.6852E+02   5.1297E+04  0.000E+00  0.000E+00  0.000E+00  3.94922E+01  1.172E-01  2.000E+01  2.000E+04 -3.343E-02
   1   10   26     2     5    5.1297E+04 -8.3334E+01   5.1381E+04  0.000E+00  0.000E+00  0.000E+00  3.92427E+01  1.177E-01  2.000E+01  2.000E+04 -4.167E-03
   1   11   25     2     6    5.1381E+04 -2.5281E+01   5.1406E+04  0.000E+00  0.000E+00  0.000E+00  3.89928E+01  1.178E-01  2.000E+01  2.000E+04 -1.264E-03
   1   12   24     2     7    5.1406E+04 -2.2801E+02   5.1634E+04  0.000E+00  0.000E+00  0.000E+00  3.87430E+01  1.180E-01  2.000E+01  2.000E+04 -1.140E-02
   1   13   23     2     8    5.1634E+04 -2.7524E+01   5.1662E+04  0.000E+00  0.000E+00  0.000E+00  3.84931E+01  1.181E-01  2.000E+01  2.000E+04 -1.376E-03
   1   14   22     2     9    5.1662E+04  2.1747E+03   4.9487E+04  0.000E+00  0.000E+00  0.000E+00  3.82417E+01  1.167E-01  2.000E+01  2.000E+04  1.087E-01
   1   14   22     3     1    1.5275E+05 -8.4013E+03   1.6115E+05  0.000E+00  0.000E+00  0.000E+00  3.77129E+01  1.573E-01  2.000E+01  2.000E+04 -4.201E-01
   1   15   23     3     2    1.6115E+05 -3.2204E+02   1.6147E+05  0.000E+00  0.000E+00  0.000E+00  3.68266E+01  1.599E-01  2.000E+01  2.000E+04 -1.610E-02
   1   15   24     3     3    1.6147E+05 -1.7801E+02   1.6165E+05  0.000E+00  0.000E+00  0.000E+00  3.59378E+01  1.601E-01  2.000E+01  2.000E+04 -8.901E-03
   1   15   25     3     4    1.6165E+05 -1.8324E+02   1.6183E+05  0.000E+00  0.000E+00  0.000E+00  3.50491E+01  1.602E-01  2.000E+01  2.000E+04 -9.162E-03
   1   15   26     3     5    1.6183E+05 -2.4095E+02   1.6207E+05  0.000E+00  0.000E+00  0.000E+00  3.41603E+01  1.603E-01  2.000E+01  2.000E+04 -1.205E-02
   1   16   27     3     6    1.6207E+05 -2.5215E+02   1.6233E+05  0.000E+00  0.000E+00  0.000E+00  3.32716E+01  1.604E-01  2.000E+01  2.000E+04 -1.261E-02
   1   17   28     3     7    1.6233E+05 -1.2301E+03   1.6356E+05  0.000E+00  0.000E+00  0.000E+00  3.23831E+01  1.609E-01  2.000E+01  2.000E+04 -6.150E-02
   1   18   29     3     8    1.6356E+05 -2.4676E+03   1.6602E+05  0.000E+00  0.000E+00  0.000E+00  3.14953E+01  1.620E-01  2.000E+01  2.000E+04 -1.234E-01
   1   18   30     3     9    1.6602E+05 -2.8719E+03   1.6890E+05  0.000E+00  0.000E+00  0.000E+00  3.06080E+01  1.635E-01  2.000E+01  2.000E+04 -1.436E-01



1
              HEAD IN LAYER   1 AT END OF TIME STEP   1 IN STRESS PERIOD   11
  ---------------------------------------------------------------------------

          1      2      3      4      5      6      7      8      9     10
         11     12     13     14     15     16     17     18     19     20
         21     22     23     24     25     26     27     28     29     30
 .........................................................................
   1  ****** ****** ****** ****** ****** ****** ****** ****** ****** ******
      ****** ****** ****** ****** ****** ****** ****** ****** ****** ******
      ****** ****** ****** ****** ****** ****** ****** ****** ****** ******
   2  ****** ****** ****** ****** ****** ****** ****** ****** ****** ******
      ****** ****** ****** ****** ****** ****** ****** ****** ****** ******
      ****** ****** ****** ****** ****** ****** ****** ****** ****** ******
   3  ****** ****** ****** ****** ****** ****** ****** ****** ****** ******
      ****** ****** ****** ****** ****** ****** ****** ****** ****** ******
      ****** ****** ****** ****** ****** ****** ****** ****** ****** ******
   4  ****** ****** ****** ****** ****** ****** ****** ****** ****** ******
      ****** ****** ****** ****** ****** ****** ****** ****** ****** ******
      ****** ****** ****** ****** ****** ****** ****** ****** ****** ******
   5  ****** ****** ****** ****** ****** ****** ****** ****** ****** ******
      ****** ****** ****** ****** ****** ****** ****** ****** ****** ******
      ****** ****** ****** ****** ****** ****** ****** ****** ****** ******
   6  ****** ****** ****** ****** ****** ****** ****** ****** ****** ******
      ****** ****** ****** ****** ****** ****** ****** ****** ****** ******
      ****** ****** ****** ****** ****** ****** ****** ****** ****** ******
   7  ****** ****** ****** ****** ****** ****** ****** ****** ****** ******
      ****** ****** ****** ****** ****** ****** ****** ****** ****** ******
      ****** ****** ****** ****** ****** ****** ****** ****** ****** ******
   8  ****** ****** ****** ****** ****** ****** ****** ****** ****** ******
      ****** ****** ****** ****** ****** ****** ****** ****** ****** ******
      ****** ****** ****** ****** ****** ****** ****** ****** ****** ******
   9  ****** ****** ****** ****** ****** ****** ****** ****** ****** ******
      ****** ****** ****** ****** ****** ****** ****** ****** ****** ******
      ****** ****** ****** ****** ****** ****** ****** ****** ****** ******
  10  ****** ****** ****** ****** ****** ****** ****** ****** ****** ******
      ****** ****** ****** ****** ****** ****** ****** ****** ****** ******
      ****** ****** ****** ****** ****** ****** ****** ****** ****** ******
  11  ****** ****** ****** ****** ****** ****** ****** ****** ****** ******
      ****** ****** ****** ****** ****** ****** ****** ****** ****** ******
      ****** ****** ****** ****** ****** ****** ****** ****** ****** ******
  12  ****** ****** ****** ****** ****** ****** ****** ****** ****** ******
      ****** ****** ****** ****** ****** ****** ****** ****** ****** ******
      ****** ****** ****** ****** ****** ****** ****** ****** ****** ******
  13  ****** ****** ****** ****** ****** ****** ****** ****** ****** ******
      ****** ****** ****** ****** ****** ****** ****** ****** ****** ******
      ****** ****** ****** ****** ****** ****** ****** ****** ****** ******
  14  ****** ****** ****** ****** ****** ****** ****** ****** ****** ******
      ****** ****** ****** ****** ****** ****** ****** ****** ****** ******
      ****** ****** ****** ****** ****** ****** ****** ****** ****** ******
  15  ****** ****** ****** ****** ****** ****** ****** ****** ****** ******
      ****** ****** ****** ****** ****** ****** ****** ****** ****** ******
      ****** ****** ****** ****** ****** ****** ****** ****** ****** ******
  16  ****** ****** ****** ****** ****** ****** ****** ****** ****** ******
      ****** ****** ****** ****** ****** ****** ****** ****** ****** ******
      ****** ****** ****** ****** ****** ****** ****** ****** ****** ******
  17  ****** ****** ****** ****** ****** ****** ****** ****** ****** ******
      ****** ****** ****** ****** ****** ****** ****** ****** ****** ******
      ****** ****** ****** ****** ****** ****** ****** ****** ****** ******
  18  ****** ****** ****** ****** ****** ****** ****** ****** ****** ******
      ****** ****** ****** ****** ****** ****** ****** ****** ****** ******
      ****** ****** ****** ****** ****** ****** ****** ****** ****** ******
  19  ****** ****** ****** ****** ****** ****** ****** ****** ****** ******
      ****** ****** ****** ****** ****** ****** ****** ****** ****** ******
      ****** ****** ****** ****** ****** ****** ****** ****** ****** ******
  20  ****** ****** ****** ****** ****** ****** ****** ****** ****** ******
      ****** ****** ****** ****** ****** ****** ****** ****** ****** ******
      ****** ****** ****** ****** ****** ****** ****** ****** ****** ******
  21  ****** ****** ****** ****** ****** ****** ****** ****** ****** ******
      ****** ****** ****** ****** ****** ****** ****** ****** ****** ******
      ****** ****** ****** ****** ****** ****** ****** ****** ****** ******
  22  ****** ****** ****** ****** ****** ****** ****** ****** ****** ******
      ****** ****** ****** ****** ****** ****** ****** ****** ****** ******
      ****** ****** ****** ****** ****** ****** ****** ****** ****** ******
  23  ****** ****** ****** ****** ****** ****** ****** ****** ****** ******
      ****** ****** ****** ****** ****** ****** ****** ****** ****** ******
      ****** ****** ****** ****** ****** ****** ****** ****** ****** ******
  24  ****** ****** ****** ****** ****** ****** ****** ****** ****** ******
      ****** ****** ****** ****** ****** ****** ****** ****** ****** ******
      ****** ****** ****** ****** ****** ****** ****** ****** ****** ******
  25  ****** ****** ****** ****** ****** ****** ****** ****** ****** ******
      ****** ****** ****** ****** ****** ****** ****** ****** ****** ******
      ****** ****** ****** ****** ****** ****** ****** ****** ****** ******

 HEAD WILL BE SAVED ON UNIT   51 AT END OF TIME STEP    1, STRESS PERIOD   11
1
  VOLUMETRIC BUDGET FOR ENTIRE MODEL AT END OF TIME STEP    1, STRESS PERIOD  11
  ------------------------------------------------------------------------------

     CUMULATIVE VOLUMES      L**3       RATES FOR THIS TIME STEP      L**3/T
     ------------------                 ------------------------

           IN:                                      IN:
           ---                                      ---
             STORAGE =    36631499.4197               STORAGE =       17963.9125
       CONSTANT HEAD =    29927805.5613         CONSTANT HEAD =       36360.9394
               WELLS =           0.0000                 WELLS =           0.0000
            RECHARGE =    23901600.0000              RECHARGE =           0.0000
      STREAM LEAKAGE =     7518977.9852        STREAM LEAKAGE =        9656.5231

            TOTAL IN =    97979882.9661              TOTAL IN =       63981.3750

          OUT:                                     OUT:
          ----                                     ----
             STORAGE =     2329628.7385               STORAGE =           0.0000
       CONSTANT HEAD =           0.0000         CONSTANT HEAD =           0.0000
               WELLS =    35571384.4528                 WELLS =       35429.6658
            RECHARGE =           0.0000              RECHARGE =           0.0000
      STREAM LEAKAGE =    60078871.8304        STREAM LEAKAGE =       28551.7143

           TOTAL OUT =    97979885.0217             TOTAL OUT =       63981.3801

            IN - OUT =          -2.0556              IN - OUT =      -5.0929E-03

 PERCENT DISCREPANCY =          -0.00     PERCENT DISCREPANCY =          -0.00






         TIME SUMMARY AT END OF TIME STEP    1 IN STRESS PERIOD   11
                    SECONDS     MINUTES      HOURS       DAYS        YEARS
                    -----------------------------------------------------------
   TIME STEP LENGTH 7.86240E+06 1.31040E+05  2184.0      91.000     0.24914    
 STRESS PERIOD TIME 7.86240E+06 1.31040E+05  2184.0      91.000     0.24914    
         TOTAL TIME 8.67456E+07 1.44576E+06  24096.      1004.0      2.7488    
1
1
                            STRESS PERIOD NO.   12, LENGTH =   91.00000    
                            -----------------------------------------------

                              NUMBER OF TIME STEPS =     1

                               MULTIPLIER FOR DELT =     1.500

                            INITIAL TIME STEP SIZE =   91.00000    

 WELL NO.  LAYER   ROW   COL   STRESS RATE         
 --------------------------------------------------
      1      1     16     16      -9666.    
      2      1      6     22      -5938.    
      3      1     19     13      -8939.    
      4      1      6     21     -0.1089E+05

      4 WELLS

                 RECHARGE =  1.000000E-03

 REUSING STREAM SEGMENT DATA FROM LAST STRESS PERIOD
 
 SOLVING FOR HEAD 


     7 CALLS TO PCG ROUTINE FOR TIME STEP   1 IN STRESS PERIOD   12
    24 TOTAL ITERATIONS

 OUTPUT CONTROL FOR STRESS PERIOD   12   TIME STEP    1
    SAVE BUDGET
    SAVE HEAD FOR ALL LAYERS
    PRINT HEAD FOR ALL LAYERS
 UBDSV2 SAVING "STREAMFLOW OUT  " ON UNIT  50 AT TIME STEP  1, STRESS PERIOD  12



 STREAM LISTING     PERIOD     12   STEP        1

 LAYER ROW COL. STREAM  RCH.  FLOW INTO     FLOW TO   FLOW OUT OF   OVRLND.     DIRECT     STREAM       STREAM     STREAM     STREAM   STREAMBED  STREAMBED
                SEG.NO.  NO.  STRM. RCH.    AQUIFER    STRM. RCH.    RUNOFF     PRECIP       ET          HEAD       DEPTH      WIDTH   CONDCTNC.   GRADIENT

   1   13    1     1     1    1.0000E+05 -1.5646E+03   1.0156E+05  0.000E+00  0.000E+00  0.000E+00  4.84067E+01  1.453E-01  2.000E+01  2.000E+04 -7.823E-02
   1   13    2     1     2    1.0156E+05 -2.4992E+03   1.0406E+05  0.000E+00  0.000E+00  0.000E+00  4.79312E+01  1.471E-01  2.000E+01  2.000E+04 -1.250E-01
   1   14    3     1     3    1.0406E+05 -4.1446E+02   1.0448E+05  0.000E+00  0.000E+00  0.000E+00  4.74551E+01  1.483E-01  2.000E+01  2.000E+04 -2.072E-02
   1   15    4     1     4    1.0448E+05 -3.7847E+02   1.0486E+05  0.000E+00  0.000E+00  0.000E+00  4.69782E+01  1.487E-01  2.000E+01  2.000E+04 -1.892E-02
   1   16    5     1     5    1.0486E+05 -1.2723E+03   1.0613E+05  0.000E+00  0.000E+00  0.000E+00  4.65016E+01  1.494E-01  2.000E+01  2.000E+04 -6.362E-02
   1   16    6     1     6    1.0613E+05 -7.7298E+02   1.0690E+05  0.000E+00  0.000E+00  0.000E+00  4.60252E+01  1.502E-01  2.000E+01  2.000E+04 -3.865E-02
   1   16    7     1     7    1.0690E+05 -7.0216E+02   1.0760E+05  0.000E+00  0.000E+00  0.000E+00  4.55486E+01  1.509E-01  2.000E+01  2.000E+04 -3.511E-02
   1   16    8     1     8    1.0760E+05 -6.1270E+02   1.0822E+05  0.000E+00  0.000E+00  0.000E+00  4.50719E+01  1.514E-01  2.000E+01  2.000E+04 -3.064E-02
   1   16    9     1     9    1.0822E+05 -4.7793E+02   1.0869E+05  0.000E+00  0.000E+00  0.000E+00  4.45951E+01  1.519E-01  2.000E+01  2.000E+04 -2.390E-02
   1   16   10     1    10    1.0869E+05 -2.7488E+02   1.0897E+05  0.000E+00  0.000E+00  0.000E+00  4.41181E+01  1.522E-01  2.000E+01  2.000E+04 -1.374E-02
   1   16   11     1    11    1.0897E+05  3.7807E+01   1.0893E+05  0.000E+00  0.000E+00  0.000E+00  4.36409E+01  1.523E-01  2.000E+01  2.000E+04  1.890E-03
   1   16   12     1    12    1.0893E+05  7.8979E+02   1.0814E+05  0.000E+00  0.000E+00  0.000E+00  4.31633E+01  1.519E-01  2.000E+01  2.000E+04  3.949E-02
   1   15   13     1    13    1.0814E+05  5.8111E+02   1.0756E+05  0.000E+00  0.000E+00  0.000E+00  4.26855E+01  1.514E-01  2.000E+01  2.000E+04  2.906E-02
   1   14   14     1    14    1.0756E+05  2.0269E+02   1.0736E+05  0.000E+00  0.000E+00  0.000E+00  4.22079E+01  1.510E-01  2.000E+01  2.000E+04  1.013E-02
   1   13   15     1    15    1.0736E+05 -4.4010E+02   1.0780E+05  0.000E+00  0.000E+00  0.000E+00  4.17307E+01  1.511E-01  2.000E+01  2.000E+04 -2.201E-02
   1   12   16     1    16    1.0780E+05 -1.4312E+03   1.0923E+05  0.000E+00  0.000E+00  0.000E+00  4.12542E+01  1.519E-01  2.000E+01  2.000E+04 -7.156E-02
   1   12   17     1    17    1.0923E+05 -5.8987E+02   1.0982E+05  0.000E+00  0.000E+00  0.000E+00  4.07778E+01  1.528E-01  2.000E+01  2.000E+04 -2.949E-02
   1   12   18     1    18    1.0982E+05 -4.9541E+02   1.1031E+05  0.000E+00  0.000E+00  0.000E+00  4.03009E+01  1.532E-01  2.000E+01  2.000E+04 -2.477E-02
   1   12   19     1    19    1.1031E+05 -6.5765E+02   1.1097E+05  0.000E+00  0.000E+00  0.000E+00  3.98242E+01  1.537E-01  2.000E+01  2.000E+04 -3.288E-02
   1   13   20     1    20    1.1097E+05 -3.5855E+02   1.1133E+05  0.000E+00  0.000E+00  0.000E+00  3.93473E+01  1.541E-01  2.000E+01  2.000E+04 -1.793E-02
   1   14   21     1    21    1.1133E+05 -3.9760E+02   1.1173E+05  0.000E+00  0.000E+00  0.000E+00  3.88703E+01  1.544E-01  2.000E+01  2.000E+04 -1.988E-02
   1   14   22     1    22    1.1173E+05  5.0545E+03   1.0667E+05  0.000E+00  0.000E+00  0.000E+00  3.83911E+01  1.525E-01  2.000E+01  2.000E+04  2.527E-01
   1    9   30     2     1    5.0000E+04 -1.8855E+02   5.0189E+04  0.000E+00  0.000E+00  0.000E+00  4.02410E+01  1.160E-01  2.000E+01  2.000E+04 -9.427E-03
   1    9   29     2     2    5.0189E+04 -4.2919E+02   5.0618E+04  0.000E+00  0.000E+00  0.000E+00  3.99914E+01  1.164E-01  2.000E+01  2.000E+04 -2.146E-02
   1    9   28     2     3    5.0618E+04 -5.3248E+02   5.1150E+04  0.000E+00  0.000E+00  0.000E+00  3.97421E+01  1.171E-01  2.000E+01  2.000E+04 -2.662E-02
   1    9   27     2     4    5.1150E+04 -8.7750E+02   5.2028E+04  0.000E+00  0.000E+00  0.000E+00  3.94931E+01  1.181E-01  2.000E+01  2.000E+04 -4.388E-02
   1   10   26     2     5    5.2028E+04 -3.1302E+02   5.2341E+04  0.000E+00  0.000E+00  0.000E+00  3.92439E+01  1.189E-01  2.000E+01  2.000E+04 -1.565E-02
   1   11   25     2     6    5.2341E+04 -2.5108E+02   5.2592E+04  0.000E+00  0.000E+00  0.000E+00  3.89943E+01  1.193E-01  2.000E+01  2.000E+04 -1.255E-02
   1   12   24     2     7    5.2592E+04 -4.3410E+02   5.3026E+04  0.000E+00  0.000E+00  0.000E+00  3.87447E+01  1.197E-01  2.000E+01  2.000E+04 -2.170E-02
   1   13   23     2     8    5.3026E+04 -1.0514E+02   5.3131E+04  0.000E+00  0.000E+00  0.000E+00  3.84951E+01  1.201E-01  2.000E+01  2.000E+04 -5.257E-03
   1   14   22     2     9    5.3131E+04  2.1064E+03   5.1025E+04  0.000E+00  0.000E+00  0.000E+00  3.82437E+01  1.187E-01  2.000E+01  2.000E+04  1.053E-01
   1   14   22     3     1    1.5770E+05 -8.4514E+03   1.6615E+05  0.000E+00  0.000E+00  0.000E+00  3.77158E+01  1.603E-01  2.000E+01  2.000E+04 -4.226E-01
   1   15   23     3     2    1.6615E+05 -3.9403E+02   1.6654E+05  0.000E+00  0.000E+00  0.000E+00  3.68296E+01  1.629E-01  2.000E+01  2.000E+04 -1.970E-02
   1   15   24     3     3    1.6654E+05 -2.4308E+02   1.6679E+05  0.000E+00  0.000E+00  0.000E+00  3.59409E+01  1.631E-01  2.000E+01  2.000E+04 -1.215E-02
   1   15   25     3     4    1.6679E+05 -2.4957E+02   1.6704E+05  0.000E+00  0.000E+00  0.000E+00  3.50521E+01  1.632E-01  2.000E+01  2.000E+04 -1.248E-02
   1   15   26     3     5    1.6704E+05 -3.1841E+02   1.6736E+05  0.000E+00  0.000E+00  0.000E+00  3.41634E+01  1.634E-01  2.000E+01  2.000E+04 -1.592E-02
   1   16   27     3     6    1.6736E+05 -3.3891E+02   1.6769E+05  0.000E+00  0.000E+00  0.000E+00  3.32747E+01  1.636E-01  2.000E+01  2.000E+04 -1.695E-02
   1   17   28     3     7    1.6769E+05 -1.4507E+03   1.6915E+05  0.000E+00  0.000E+00  0.000E+00  3.23863E+01  1.641E-01  2.000E+01  2.000E+04 -7.254E-02
   1   18   29     3     8    1.6915E+05 -2.6681E+03   1.7181E+05  0.000E+00  0.000E+00  0.000E+00  3.14986E+01  1.653E-01  2.000E+01  2.000E+04 -1.334E-01
   1   18   30     3     9    1.7181E+05 -3.0400E+03   1.7485E+05  0.000E+00  0.000E+00  0.000E+00  3.06114E+01  1.670E-01  2.000E+01  2.000E+04 -1.520E-01



1
              HEAD IN LAYER   1 AT END OF TIME STEP   1 IN STRESS PERIOD   12
  ---------------------------------------------------------------------------

          1      2      3      4      5      6      7      8      9     10
         11     12     13     14     15     16     17     18     19     20
         21     22     23     24     25     26     27     28     29     30
 .........................................................................
   1  ****** ****** ****** ****** ****** ****** ****** ****** ****** ******
      ****** ****** ****** ****** ****** ****** ****** ****** ****** ******
      ****** ****** ****** ****** ****** ****** ****** ****** ****** ******
   2  ****** ****** ****** ****** ****** ****** ****** ****** ****** ******
      ****** ****** ****** ****** ****** ****** ****** ****** ****** ******
      ****** ****** ****** ****** ****** ****** ****** ****** ****** ******
   3  ****** ****** ****** ****** ****** ****** ****** ****** ****** ******
      ****** ****** ****** ****** ****** ****** ****** ****** ****** ******
      ****** ****** ****** ****** ****** ****** ****** ****** ****** ******
   4  ****** ****** ****** ****** ****** ****** ****** ****** ****** ******
      ****** ****** ****** ****** ****** ****** ****** ****** ****** ******
      ****** ****** ****** ****** ****** ****** ****** ****** ****** ******
   5  ****** ****** ****** ****** ****** ****** ****** ****** ****** ******
      ****** ****** ****** ****** ****** ****** ****** ****** ****** ******
      ****** ****** ****** ****** ****** ****** ****** ****** ****** ******
   6  ****** ****** ****** ****** ****** ****** ****** ****** ****** ******
      ****** ****** ****** ****** ****** ****** ****** ****** ****** ******
      ****** ****** ****** ****** ****** ****** ****** ****** ****** ******
   7  ****** ****** ****** ****** ****** ****** ****** ****** ****** ******
      ****** ****** ****** ****** ****** ****** ****** ****** ****** ******
      ****** ****** ****** ****** ****** ****** ****** ****** ****** ******
   8  ****** ****** ****** ****** ****** ****** ****** ****** ****** ******
      ****** ****** ****** ****** ****** ****** ****** ****** ****** ******
      ****** ****** ****** ****** ****** ****** ****** ****** ****** ******
   9  ****** ****** ****** ****** ****** ****** ****** ****** ****** ******
      ****** ****** ****** ****** ****** ****** ****** ****** ****** ******
      ****** ****** ****** ****** ****** ****** ****** ****** ****** ******
  10  ****** ****** ****** ****** ****** ****** ****** ****** ****** ******
      ****** ****** ****** ****** ****** ****** ****** ****** ****** ******
      ****** ****** ****** ****** ****** ****** ****** ****** ****** ******
  11  ****** ****** ****** ****** ****** ****** ****** ****** ****** ******
      ****** ****** ****** ****** ****** ****** ****** ****** ****** ******
      ****** ****** ****** ****** ****** ****** ****** ****** ****** ******
  12  ****** ****** ****** ****** ****** ****** ****** ****** ****** ******
      ****** ****** ****** ****** ****** ****** ****** ****** ****** ******
      ****** ****** ****** ****** ****** ****** ****** ****** ****** ******
  13  ****** ****** ****** ****** ****** ****** ****** ****** ****** ******
      ****** ****** ****** ****** ****** ****** ****** ****** ****** ******
      ****** ****** ****** ****** ****** ****** ****** ****** ****** ******
  14  ****** ****** ****** ****** ****** ****** ****** ****** ****** ******
      ****** ****** ****** ****** ****** ****** ****** ****** ****** ******
      ****** ****** ****** ****** ****** ****** ****** ****** ****** ******
  15  ****** ****** ****** ****** ****** ****** ****** ****** ****** ******
      ****** ****** ****** ****** ****** ****** ****** ****** ****** ******
      ****** ****** ****** ****** ****** ****** ****** ****** ****** ******
  16  ****** ****** ****** ****** ****** ****** ****** ****** ****** ******
      ****** ****** ****** ****** ****** ****** ****** ****** ****** ******
      ****** ****** ****** ****** ****** ****** ****** ****** ****** ******
  17  ****** ****** ****** ****** ****** ****** ****** ****** ****** ******
      ****** ****** ****** ****** ****** ****** ****** ****** ****** ******
      ****** ****** ****** ****** ****** ****** ****** ****** ****** ******
  18  ****** ****** ****** ****** ****** ****** ****** ****** ****** ******
      ****** ****** ****** ****** ****** ****** ****** ****** ****** ******
      ****** ****** ****** ****** ****** ****** ****** ****** ****** ******
  19  ****** ****** ****** ****** ****** ****** ****** ****** ****** ******
      ****** ****** ****** ****** ****** ****** ****** ****** ****** ******
      ****** ****** ****** ****** ****** ****** ****** ****** ****** ******
  20  ****** ****** ****** ****** ****** ****** ****** ****** ****** ******
      ****** ****** ****** ****** ****** ****** ****** ****** ****** ******
      ****** ****** ****** ****** ****** ****** ****** ****** ****** ******
  21  ****** ****** ****** ****** ****** ****** ****** ****** ****** ******
      ****** ****** ****** ****** ****** ****** ****** ****** ****** ******
      ****** ****** ****** ****** ****** ****** ****** ****** ****** ******
  22  ****** ****** ****** ****** ****** ****** ****** ****** ****** ******
      ****** ****** ****** ****** ****** ****** ****** ****** ****** ******
      ****** ****** ****** ****** ****** ****** ****** ****** ****** ******
  23  ****** ****** ****** ****** ****** ****** ****** ****** ****** ******
      ****** ****** ****** ****** ****** ****** ****** ****** ****** ******
      ****** ****** ****** ****** ****** ****** ****** ****** ****** ******
  24  ****** ****** ****** ****** ****** ****** ****** ****** ****** ******
      ****** ****** ****** ****** ****** ****** ****** ****** ****** ******
      ****** ****** ****** ****** ****** ****** ****** ****** ****** ******
  25  ****** ****** ****** ****** ****** ****** ****** ****** ****** ******
      ****** ****** ****** ****** ****** ****** ****** ****** ****** ******
      ****** ****** ****** ****** ****** ****** ****** ****** ****** ******

 HEAD WILL BE SAVED ON UNIT   51 AT END OF TIME STEP    1, STRESS PERIOD   12
1
  VOLUMETRIC BUDGET FOR ENTIRE MODEL AT END OF TIME STEP    1, STRESS PERIOD  12
  ------------------------------------------------------------------------------

     CUMULATIVE VOLUMES      L**3       RATES FOR THIS TIME STEP      L**3/T
     ------------------                 ------------------------

           IN:                                      IN:
           ---                                      ---
             STORAGE =    36632600.9154               STORAGE =          12.1043
       CONSTANT HEAD =    33173509.0751         CONSTANT HEAD =       35667.0716
               WELLS =           0.0000                 WELLS =           0.0000
            RECHARGE =    26413200.0000              RECHARGE =       27600.0000
      STREAM LEAKAGE =     8317254.2995        STREAM LEAKAGE =        8772.2672

            TOTAL IN =   104536564.2900              TOTAL IN =       72051.4431

          OUT:                                     OUT:
          ----                                     ----
             STORAGE =     2602296.5297               STORAGE =        2996.3494
       CONSTANT HEAD =           0.0000         CONSTANT HEAD =           0.0000
               WELLS =    38795484.0397                 WELLS =       35429.6658
            RECHARGE =           0.0000              RECHARGE =           0.0000
      STREAM LEAKAGE =    63138785.6886        STREAM LEAKAGE =       33625.4270

           TOTAL OUT =   104536566.2580             TOTAL OUT =       72051.4422

            IN - OUT =          -1.9680              IN - OUT =       9.6223E-04

 PERCENT DISCREPANCY =          -0.00     PERCENT DISCREPANCY =           0.00






         TIME SUMMARY AT END OF TIME STEP    1 IN STRESS PERIOD   12
                    SECONDS     MINUTES      HOURS       DAYS        YEARS
                    -----------------------------------------------------------
   TIME STEP LENGTH 7.86240E+06 1.31040E+05  2184.0      91.000     0.24914    
 STRESS PERIOD TIME 7.86240E+06 1.31040E+05  2184.0      91.000     0.24914    
         TOTAL TIME 9.46080E+07 1.57680E+06  26280.      1095.0      2.9979    
1

 Run end date and time (yyyy/mm/dd hh:mm:ss): 2018/10/10 18:20:54
 Elapsed run time:  0.056 Seconds

