                                  MODFLOW-2005     
      U.S. GEOLOGICAL SURVEY MODULAR FINITE-DIFFERENCE GROUND-WATER FLOW MODEL
                            VERSION 1.11.00 8/8/2013

 LIST FILE: supply2.lst
                         UNIT   10

 OPENING ..\data\supply.dis
 FILE TYPE:DIS   UNIT   11   STATUS:OLD    
 FORMAT:FORMATTED              ACCESS:SEQUENTIAL          

 OPENING ..\data\supply.ba6
 FILE TYPE:BAS6   UNIT   12   STATUS:OLD    
 FORMAT:FORMATTED              ACCESS:SEQUENTIAL          

 OPENING ..\data\supply.bc6
 FILE TYPE:BCF6   UNIT   13   STATUS:OLD    
 FORMAT:FORMATTED              ACCESS:SEQUENTIAL          

 OPENING ..\data\supply.rch
 FILE TYPE:RCH   UNIT   15   STATUS:OLD    
 FORMAT:FORMATTED              ACCESS:SEQUENTIAL          

 OPENING ..\data\supply2.sfr
 FILE TYPE:SFR   UNIT   16   STATUS:OLD    
 FORMAT:FORMATTED              ACCESS:SEQUENTIAL          

 OPENING ..\data\supply.oc
 FILE TYPE:OC   UNIT   17   STATUS:OLD    
 FORMAT:FORMATTED              ACCESS:SEQUENTIAL          

 OPENING ..\data\supply.pcg
 FILE TYPE:PCG   UNIT   18   STATUS:OLD    
 FORMAT:FORMATTED              ACCESS:SEQUENTIAL          

 OPENING supply2.wel
 FILE TYPE:WEL   UNIT   19   STATUS:OLD    
 FORMAT:FORMATTED              ACCESS:SEQUENTIAL          

 OPENING supply2sf.bin
 FILE TYPE:DATA(BINARY)   UNIT   50   STATUS:UNKNOWN
 FORMAT:BINARY                 ACCESS:SEQUENTIAL          

 OPENING supply2hd.bin
 FILE TYPE:DATA(BINARY)   UNIT   51   STATUS:UNKNOWN
 FORMAT:BINARY                 ACCESS:SEQUENTIAL          

 BAS -- BASIC PACKAGE, VERSION 7, 5/2/2005 INPUT READ FROM UNIT   12
 
 MODFLOW was compiled using uniform precision
 Precision of REAL and DOUBLE PRECISION variables:          15

 DISCRETIZATION INPUT DATA READ FROM UNIT   11
    1 LAYERS        25 ROWS        30 COLUMNS
   12 STRESS PERIOD(S) IN SIMULATION
 MODEL TIME UNIT IS DAYS
 MODEL LENGTH UNIT IS UNDEFINED
  Confining bed flag for each layer:
   0

                     DELR =   200.000    

                     DELC =   200.000    

 TOP ELEVATION OF LAYER 1 =  100.0000    

   MODEL LAYER BOTTOM EL. =   0.00000     FOR LAYER   1


 STRESS PERIOD     LENGTH       TIME STEPS     MULTIPLIER FOR DELT    SS FLAG
 ----------------------------------------------------------------------------
        1         92.00000          1                    1.500         TR
        2         91.00000          1                    1.500         TR
        3         91.00000          1                    1.500         TR
        4         91.00000          1                    1.500         TR
        5         92.00000          1                    1.500         TR
        6         91.00000          1                    1.500         TR
        7         91.00000          1                    1.500         TR
        8         91.00000          1                    1.500         TR
        9         92.00000          1                    1.500         TR
       10         91.00000          1                    1.500         TR
       11         91.00000          1                    1.500         TR
       12         91.00000          1                    1.500         TR

 TRANSIENT SIMULATION



 
 #MODOFC transient water supply sample problem                                   
 #                                                                               
 THE FREE FORMAT OPTION HAS BEEN SELECTED



                     BOUNDARY ARRAY FOR LAYER   1
 READING ON UNIT   12 WITH FORMAT: (20I4)              

 AQUIFER HEAD WILL BE SET TO   0.0000     AT ALL NO-FLOW NODES (IBOUND=0).



                       INITIAL HEAD FOR LAYER   1
 READING ON UNIT   12 WITH FORMAT: (10F13.0)           

 OUTPUT CONTROL IS SPECIFIED ONLY AT TIME STEPS FOR WHICH OUTPUT IS DESIRED
 COMPACT CELL-BY-CELL BUDGET FILES WILL BE WRITTEN
 HEAD PRINT FORMAT CODE IS  18    DRAWDOWN PRINT FORMAT CODE IS   0
 HEADS WILL BE SAVED ON UNIT   51    DRAWDOWNS WILL BE SAVED ON UNIT    0

 BCF -- BLOCK-CENTERED FLOW PACKAGE, VERSION 7, 5/2/2005
         INPUT READ FROM UNIT 13
 TRANSIENT SIMULATION
 HEAD AT CELLS THAT CONVERT TO DRY=   0.0000    
 WETTING CAPABILITY IS NOT ACTIVE
      LAYER  LAYER-TYPE CODE     INTERBLOCK T
      --------------------------------------------
         1            0          0 -- HARMONIC    

 COLUMN TO ROW ANISOTROPY =  1.000000    

     PRIMARY STORAGE COEF =  5.000000E-02 FOR LAYER   1

     TRANSMIS. ALONG ROWS =   5000.00     FOR LAYER   1

 WEL -- WELL PACKAGE, VERSION 7, 5/2/2005 INPUT READ FROM UNIT   19
 # Well package input file written by MMProc
 No named parameters
 MAXIMUM OF      7 ACTIVE WELLS AT ONE TIME


     0 Well parameters

 RCH -- RECHARGE PACKAGE, VERSION 7, 5/2/2005 INPUT READ FROM UNIT   15
 No named parameters
 OPTION 1 -- RECHARGE TO TOP LAYER


     0 Recharge parameters

 SFR7 -- STREAMFLOW ROUTING PACKAGE, VERSION 1.0.7, 2013-01-15
         INPUT READ FROM UNIT  16
 #  Supply2 test problem for GWM-VI
 #  The eighth entry in the first data line is ISTCB2 -
 #    Setting this to a negative number indicates that
 #    streamflows out of the reach will be saved to a
 #    binary file.  The absolute value of ISTCB2 is the
 #    unit to which unformatted flows will be written.
 #
 No named parameters
 Segment information will not be 
 read by reach
 No named parameters
 No specifed inflow files


 NUMBER OF STREAM REACHES IS   40

 NUMBER OF STREAM SEGMENTS IS    3

 NUMBER OF STREAM PARAMETERS IS    0

 NUMBER OF STREAM SEGMENTS DEFINED USING PARAMETERS IS              0

 MAXIMUM ERROR FOR STREAM LEAKAGE RATES IS  1.00E-04

 CONSTANT FOR MANNINGS EQUATION IS  1.2839E+05





   STREAM NETWORK DESCRIPTION: 

   LAYER    ROW    COL   SEGMENT   REACH     LENGTH
                          NUMBER   NUMBER    IN CELL        
   --------------------------------------------------
      1     13      1       1        1    2.0000E+02
      1     13      2       1        2    2.0000E+02
      1     14      3       1        3    2.0000E+02
      1     15      4       1        4    2.0000E+02
      1     16      5       1        5    2.0000E+02
      1     16      6       1        6    2.0000E+02
      1     16      7       1        7    2.0000E+02
      1     16      8       1        8    2.0000E+02
      1     16      9       1        9    2.0000E+02
      1     16     10       1       10    2.0000E+02
      1     16     11       1       11    2.0000E+02
      1     16     12       1       12    2.0000E+02
      1     15     13       1       13    2.0000E+02
      1     14     14       1       14    2.0000E+02
      1     13     15       1       15    2.0000E+02
      1     12     16       1       16    2.0000E+02
      1     12     17       1       17    2.0000E+02
      1     12     18       1       18    2.0000E+02
      1     12     19       1       19    2.0000E+02
      1     13     20       1       20    2.0000E+02
      1     14     21       1       21    2.0000E+02
      1     14     22       1       22    2.0000E+02
      1      9     30       2        1    2.0000E+02
      1      9     29       2        2    2.0000E+02
      1      9     28       2        3    2.0000E+02
      1      9     27       2        4    2.0000E+02
      1     10     26       2        5    2.0000E+02
      1     11     25       2        6    2.0000E+02
      1     12     24       2        7    2.0000E+02
      1     13     23       2        8    2.0000E+02
      1     14     22       2        9    2.0000E+02
      1     14     22       3        1    2.0000E+02
      1     15     23       3        2    2.0000E+02
      1     15     24       3        3    2.0000E+02
      1     15     25       3        4    2.0000E+02
      1     15     26       3        5    2.0000E+02
      1     16     27       3        6    2.0000E+02
      1     17     28       3        7    2.0000E+02
      1     18     29       3        8    2.0000E+02
      1     18     30       3        9    2.0000E+02




 PCG -- CONJUGATE-GRADIENT SOLUTION PACKAGE, VERSION 7, 5/2/2005
 MAXIMUM OF    500 CALLS OF SOLUTION ROUTINE
 MAXIMUM OF      5 INTERNAL ITERATIONS PER CALL TO SOLUTION ROUTINE
 MATRIX PRECONDITIONING TYPE :    1



                                    SOLUTION BY THE CONJUGATE-GRADIENT METHOD
                                   -------------------------------------------
                    MAXIMUM NUMBER OF CALLS TO PCG ROUTINE =      500
                        MAXIMUM ITERATIONS PER CALL TO PCG =        5
                               MATRIX PRECONDITIONING TYPE =        1
        RELAXATION FACTOR (ONLY USED WITH PRECOND. TYPE 1) =    0.10000E+01
 PARAMETER OF POLYNOMIAL PRECOND. = 2 (2) OR IS CALCULATED :        0
                         HEAD CHANGE CRITERION FOR CLOSURE =    0.10000E-05
                     RESIDUAL CHANGE CRITERION FOR CLOSURE =    0.10000E+01
            PCG HEAD AND RESIDUAL CHANGE PRINTOUT INTERVAL =        1
     PRINTING FROM SOLVER IS LIMITED(1) OR SUPPRESSED (>1) =        1
                            STEADY-STATE DAMPING PARAMETER =    0.10000E+01
                               TRANSIENT DAMPING PARAMETER =    0.10000E+01
1
                            STRESS PERIOD NO.    1, LENGTH =   92.00000    
                            -----------------------------------------------

                              NUMBER OF TIME STEPS =     1

                               MULTIPLIER FOR DELT =     1.500

                            INITIAL TIME STEP SIZE =   92.00000    

 WELL NO.  LAYER   ROW   COL   STRESS RATE         
 --------------------------------------------------
      1      1      5      8     -0.5000E+05
      2      1      3      6     -0.3000E+05

      2 WELLS

                 RECHARGE =  5.000000E-04



 CLASSIFICATION & COUNT OF STREAM SEGMENTS BASED ON SOURCE OF INFLOW:

                HEADWATER     DIVERSION     RECEIVES TRIBUTARY FLOW
                ---------     ---------     -----------------------
                     2              0               1



                    INPUT DATA FOR EACH STREAM SEGMENT
 ---------------------------------------------------------------------------------------------

 SEGMENT    SEG.     INFLOW   OVERLAND   STREAM    STREAM   ICALC  OUTFLOW  DIVERSION PRIORITY
    NO.    LENGTH     RATE     RUNOFF      ET       PPT.    METH.  TO SEG.  FROM SEG.    NO.

      1  4.400E+03 1.000E+05 0.000E+00 0.000E+00 0.000E+00    1        3        0        0
      2  1.800E+03 5.000E+04 0.000E+00 0.000E+00 0.000E+00    1        3        0        0
      3  1.800E+03 0.000E+00 0.000E+00 0.000E+00 0.000E+00    1        0        0        0


         STREAMBED PROPERTIES AND STREAM DIMENSIONS

 SEGMENT     BED HYD. COND.      BED THICKNESS     ELEV.-TOP OF BED     WIDTH OF STREAM     DEPTH OF STREAM    STREAM ROUGHNESS
    No.     UPPER     LOWER     UPPER     LOWER     UPPER     LOWER     UPPER     LOWER     UPPER     LOWER   CHANNEL      BANK

     1  5.000E+00 5.000E+00 1.000E+00 1.000E+00 4.850E+01 3.800E+01 2.000E+01 2.000E+01                     5.000E-02
     2  5.000E+00 5.000E+00 1.000E+00 1.000E+00 4.025E+01 3.800E+01 2.000E+01 2.000E+01                     5.000E-02
     3  5.000E+00 5.000E+00 1.000E+00 1.000E+00 3.800E+01 3.000E+01 2.000E+01 2.000E+01                     5.000E-02



 
 SOLVING FOR HEAD 


     8 CALLS TO PCG ROUTINE FOR TIME STEP   1 IN STRESS PERIOD    1
    32 TOTAL ITERATIONS

 OUTPUT CONTROL FOR STRESS PERIOD    1   TIME STEP    1
    SAVE BUDGET
    SAVE HEAD FOR ALL LAYERS
    PRINT HEAD FOR ALL LAYERS
 UBDSV2 SAVING "STREAMFLOW OUT  " ON UNIT  50 AT TIME STEP  1, STRESS PERIOD   1



 STREAM LISTING     PERIOD      1   STEP        1

 LAYER ROW COL. STREAM  RCH.  FLOW INTO     FLOW TO   FLOW OUT OF   OVRLND.     DIRECT     STREAM       STREAM     STREAM     STREAM   STREAMBED  STREAMBED
                SEG.NO.  NO.  STRM. RCH.    AQUIFER    STRM. RCH.    RUNOFF     PRECIP       ET          HEAD       DEPTH      WIDTH   CONDCTNC.   GRADIENT

   1   13    1     1     1    1.0000E+05 -3.0155E+04   1.3015E+05  0.000E+00  0.000E+00  0.000E+00  4.84187E+01  1.574E-01  2.000E+01  2.000E+04 -1.508E+00
   1   13    2     1     2    1.3015E+05 -4.0141E+04   1.7030E+05  0.000E+00  0.000E+00  0.000E+00  4.79687E+01  1.847E-01  2.000E+01  2.000E+04 -2.007E+00
   1   14    3     1     3    1.7030E+05 -3.6252E+04   2.0655E+05  0.000E+00  0.000E+00  0.000E+00  4.75184E+01  2.115E-01  2.000E+01  2.000E+04 -1.813E+00
   1   15    4     1     4    2.0655E+05 -3.5715E+04   2.4226E+05  0.000E+00  0.000E+00  0.000E+00  4.70645E+01  2.349E-01  2.000E+01  2.000E+04 -1.786E+00
   1   16    5     1     5    2.4226E+05 -3.7118E+04   2.7938E+05  0.000E+00  0.000E+00  0.000E+00  4.66094E+01  2.571E-01  2.000E+01  2.000E+04 -1.856E+00
   1   16    6     1     6    2.7938E+05 -3.2328E+04   3.1171E+05  0.000E+00  0.000E+00  0.000E+00  4.61521E+01  2.771E-01  2.000E+01  2.000E+04 -1.616E+00
   1   16    7     1     7    3.1171E+05 -3.2098E+04   3.4381E+05  0.000E+00  0.000E+00  0.000E+00  4.56926E+01  2.949E-01  2.000E+01  2.000E+04 -1.605E+00
   1   16    8     1     8    3.4381E+05 -3.2307E+04   3.7611E+05  0.000E+00  0.000E+00  0.000E+00  4.52324E+01  3.119E-01  2.000E+01  2.000E+04 -1.615E+00
   1   16    9     1     9    3.7611E+05 -3.2439E+04   4.0855E+05  0.000E+00  0.000E+00  0.000E+00  4.47717E+01  3.285E-01  2.000E+01  2.000E+04 -1.622E+00
   1   16   10     1    10    4.0855E+05 -3.2543E+04   4.4109E+05  0.000E+00  0.000E+00  0.000E+00  4.43105E+01  3.445E-01  2.000E+01  2.000E+04 -1.627E+00
   1   16   11     1    11    4.4109E+05 -3.3307E+04   4.7440E+05  0.000E+00  0.000E+00  0.000E+00  4.38490E+01  3.603E-01  2.000E+01  2.000E+04 -1.665E+00
   1   16   12     1    12    4.7440E+05 -3.9515E+04   5.1392E+05  0.000E+00  0.000E+00  0.000E+00  4.33886E+01  3.773E-01  2.000E+01  2.000E+04 -1.976E+00
   1   15   13     1    13    5.1392E+05 -3.8598E+04   5.5251E+05  0.000E+00  0.000E+00  0.000E+00  4.29290E+01  3.949E-01  2.000E+01  2.000E+04 -1.930E+00
   1   14   14     1    14    5.5251E+05 -3.9262E+04   5.9178E+05  0.000E+00  0.000E+00  0.000E+00  4.24688E+01  4.119E-01  2.000E+01  2.000E+04 -1.963E+00
   1   13   15     1    15    5.9178E+05 -4.1363E+04   6.3314E+05  0.000E+00  0.000E+00  0.000E+00  4.20087E+01  4.291E-01  2.000E+01  2.000E+04 -2.068E+00
   1   12   16     1    16    6.3314E+05 -4.7037E+04   6.8018E+05  0.000E+00  0.000E+00  0.000E+00  4.15497E+01  4.474E-01  2.000E+01  2.000E+04 -2.352E+00
   1   12   17     1    17    6.8018E+05 -3.7245E+04   7.1742E+05  0.000E+00  0.000E+00  0.000E+00  4.10894E+01  4.644E-01  2.000E+01  2.000E+04 -1.862E+00
   1   12   18     1    18    7.1742E+05 -3.5675E+04   7.5310E+05  0.000E+00  0.000E+00  0.000E+00  4.06266E+01  4.788E-01  2.000E+01  2.000E+04 -1.784E+00
   1   12   19     1    19    7.5310E+05 -4.0179E+04   7.9328E+05  0.000E+00  0.000E+00  0.000E+00  4.01640E+01  4.935E-01  2.000E+01  2.000E+04 -2.009E+00
   1   13   20     1    20    7.9328E+05 -3.0567E+04   8.2384E+05  0.000E+00  0.000E+00  0.000E+00  3.97001E+01  5.069E-01  2.000E+01  2.000E+04 -1.528E+00
   1   14   21     1    21    8.2384E+05 -2.3003E+04   8.4685E+05  0.000E+00  0.000E+00  0.000E+00  3.92329E+01  5.169E-01  2.000E+01  2.000E+04 -1.150E+00
   1   14   22     1    22    8.4685E+05 -3.0078E+03   8.4985E+05  0.000E+00  0.000E+00  0.000E+00  3.87604E+01  5.218E-01  2.000E+01  2.000E+04 -1.504E-01
   1    9   30     2     1    5.0000E+04 -2.9657E+04   7.9657E+04  0.000E+00  0.000E+00  0.000E+00  4.02604E+01  1.354E-01  2.000E+01  2.000E+04 -1.483E+00
   1    9   29     2     2    7.9657E+04 -3.2094E+04   1.1175E+05  0.000E+00  0.000E+00  0.000E+00  4.00461E+01  1.711E-01  2.000E+01  2.000E+04 -1.605E+00
   1    9   28     2     3    1.1175E+05 -3.6408E+04   1.4816E+05  0.000E+00  0.000E+00  0.000E+00  3.98305E+01  2.055E-01  2.000E+01  2.000E+04 -1.820E+00
   1    9   27     2     4    1.4816E+05 -5.1015E+04   1.9917E+05  0.000E+00  0.000E+00  0.000E+00  3.96196E+01  2.446E-01  2.000E+01  2.000E+04 -2.551E+00
   1   10   26     2     5    1.9917E+05 -3.7419E+04   2.3659E+05  0.000E+00  0.000E+00  0.000E+00  3.94052E+01  2.802E-01  2.000E+01  2.000E+04 -1.871E+00
   1   11   25     2     6    2.3659E+05 -2.9026E+04   2.6562E+05  0.000E+00  0.000E+00  0.000E+00  3.91801E+01  3.051E-01  2.000E+01  2.000E+04 -1.451E+00
   1   12   24     2     7    2.6562E+05 -2.2076E+04   2.8769E+05  0.000E+00  0.000E+00  0.000E+00  3.89484E+01  3.234E-01  2.000E+01  2.000E+04 -1.104E+00
   1   13   23     2     8    2.8769E+05 -1.6059E+04   3.0375E+05  0.000E+00  0.000E+00  0.000E+00  3.87116E+01  3.366E-01  2.000E+01  2.000E+04 -8.030E-01
   1   14   22     2     9    3.0375E+05 -8.8154E+03   3.1257E+05  0.000E+00  0.000E+00  0.000E+00  3.84700E+01  3.450E-01  2.000E+01  2.000E+04 -4.408E-01
   1   14   22     3     1    1.1624E+06 -1.6599E+04   1.1790E+06  0.000E+00  0.000E+00  0.000E+00  3.80808E+01  5.253E-01  2.000E+01  2.000E+04 -8.300E-01
   1   15   23     3     2    1.1790E+06 -2.6749E+04   1.2058E+06  0.000E+00  0.000E+00  0.000E+00  3.71977E+01  5.311E-01  2.000E+01  2.000E+04 -1.337E+00
   1   15   24     3     3    1.2058E+06 -2.2389E+04   1.2282E+06  0.000E+00  0.000E+00  0.000E+00  3.63154E+01  5.376E-01  2.000E+01  2.000E+04 -1.119E+00
   1   15   25     3     4    1.2282E+06 -2.2113E+04   1.2503E+06  0.000E+00  0.000E+00  0.000E+00  3.54324E+01  5.435E-01  2.000E+01  2.000E+04 -1.106E+00
   1   15   26     3     5    1.2503E+06 -2.5540E+04   1.2758E+06  0.000E+00  0.000E+00  0.000E+00  3.45497E+01  5.497E-01  2.000E+01  2.000E+04 -1.277E+00
   1   16   27     3     6    1.2758E+06 -3.3265E+04   1.3091E+06  0.000E+00  0.000E+00  0.000E+00  3.36685E+01  5.574E-01  2.000E+01  2.000E+04 -1.663E+00
   1   17   28     3     7    1.3091E+06 -4.0273E+04   1.3494E+06  0.000E+00  0.000E+00  0.000E+00  3.27891E+01  5.668E-01  2.000E+01  2.000E+04 -2.014E+00
   1   18   29     3     8    1.3494E+06 -5.0723E+04   1.4001E+06  0.000E+00  0.000E+00  0.000E+00  3.19117E+01  5.784E-01  2.000E+01  2.000E+04 -2.536E+00
   1   18   30     3     9    1.4001E+06 -4.6719E+04   1.4468E+06  0.000E+00  0.000E+00  0.000E+00  3.10351E+01  5.906E-01  2.000E+01  2.000E+04 -2.336E+00



1
              HEAD IN LAYER   1 AT END OF TIME STEP   1 IN STRESS PERIOD    1
  ---------------------------------------------------------------------------

          1      2      3      4      5      6      7      8      9     10
         11     12     13     14     15     16     17     18     19     20
         21     22     23     24     25     26     27     28     29     30
 .........................................................................
   1  ****** ****** ****** ****** ****** ****** ****** ****** ****** ******
      ****** ****** ****** ****** ****** ****** ****** ****** ****** ******
      ****** ****** ****** ****** ****** ****** ****** ****** ****** ******
   2  ****** ****** ****** ****** ****** ****** ****** ****** ****** ******
      ****** ****** ****** ****** ****** ****** ****** ****** ****** ******
      ****** ****** ****** ****** ****** ****** ****** ****** ****** ******
   3  ****** ****** ****** ****** ****** ****** ****** ****** ****** ******
      ****** ****** ****** ****** ****** ****** ****** ****** ****** ******
      ****** ****** ****** ****** ****** ****** ****** ****** ****** ******
   4  ****** ****** ****** ****** ****** ****** ****** ****** ****** ******
      ****** ****** ****** ****** ****** ****** ****** ****** ****** ******
      ****** ****** ****** ****** ****** ****** ****** ****** ****** ******
   5  ****** ****** ****** ****** ****** ****** ****** ****** ****** ******
      ****** ****** ****** ****** ****** ****** ****** ****** ****** ******
      ****** ****** ****** ****** ****** ****** ****** ****** ****** ******
   6  ****** ****** ****** ****** ****** ****** ****** ****** ****** ******
      ****** ****** ****** ****** ****** ****** ****** ****** ****** ******
      ****** ****** ****** ****** ****** ****** ****** ****** ****** ******
   7  ****** ****** ****** ****** ****** ****** ****** ****** ****** ******
      ****** ****** ****** ****** ****** ****** ****** ****** ****** ******
      ****** ****** ****** ****** ****** ****** ****** ****** ****** ******
   8  ****** ****** ****** ****** ****** ****** ****** ****** ****** ******
      ****** ****** ****** ****** ****** ****** ****** ****** ****** ******
      ****** ****** ****** ****** ****** ****** ****** ****** ****** ******
   9  ****** ****** ****** ****** ****** ****** ****** ****** ****** ******
      ****** ****** ****** ****** ****** ****** ****** ****** ****** ******
      ****** ****** ****** ****** ****** ****** ****** ****** ****** ******
  10  ****** ****** ****** ****** ****** ****** ****** ****** ****** ******
      ****** ****** ****** ****** ****** ****** ****** ****** ****** ******
      ****** ****** ****** ****** ****** ****** ****** ****** ****** ******
  11  ****** ****** ****** ****** ****** ****** ****** ****** ****** ******
      ****** ****** ****** ****** ****** ****** ****** ****** ****** ******
      ****** ****** ****** ****** ****** ****** ****** ****** ****** ******
  12  ****** ****** ****** ****** ****** ****** ****** ****** ****** ******
      ****** ****** ****** ****** ****** ****** ****** ****** ****** ******
      ****** ****** ****** ****** ****** ****** ****** ****** ****** ******
  13  ****** ****** ****** ****** ****** ****** ****** ****** ****** ******
      ****** ****** ****** ****** ****** ****** ****** ****** ****** ******
      ****** ****** ****** ****** ****** ****** ****** ****** ****** ******
  14  ****** ****** ****** ****** ****** ****** ****** ****** ****** ******
      ****** ****** ****** ****** ****** ****** ****** ****** ****** ******
      ****** ****** ****** ****** ****** ****** ****** ****** ****** ******
  15  ****** ****** ****** ****** ****** ****** ****** ****** ****** ******
      ****** ****** ****** ****** ****** ****** ****** ****** ****** ******
      ****** ****** ****** ****** ****** ****** ****** ****** ****** ******
  16  ****** ****** ****** ****** ****** ****** ****** ****** ****** ******
      ****** ****** ****** ****** ****** ****** ****** ****** ****** ******
      ****** ****** ****** ****** ****** ****** ****** ****** ****** ******
  17  ****** ****** ****** ****** ****** ****** ****** ****** ****** ******
      ****** ****** ****** ****** ****** ****** ****** ****** ****** ******
      ****** ****** ****** ****** ****** ****** ****** ****** ****** ******
  18  ****** ****** ****** ****** ****** ****** ****** ****** ****** ******
      ****** ****** ****** ****** ****** ****** ****** ****** ****** ******
      ****** ****** ****** ****** ****** ****** ****** ****** ****** ******
  19  ****** ****** ****** ****** ****** ****** ****** ****** ****** ******
      ****** ****** ****** ****** ****** ****** ****** ****** ****** ******
      ****** ****** ****** ****** ****** ****** ****** ****** ****** ******
  20  ****** ****** ****** ****** ****** ****** ****** ****** ****** ******
      ****** ****** ****** ****** ****** ****** ****** ****** ****** ******
      ****** ****** ****** ****** ****** ****** ****** ****** ****** ******
  21  ****** ****** ****** ****** ****** ****** ****** ****** ****** ******
      ****** ****** ****** ****** ****** ****** ****** ****** ****** ******
      ****** ****** ****** ****** ****** ****** ****** ****** ****** ******
  22  ****** ****** ****** ****** ****** ****** ****** ****** ****** ******
      ****** ****** ****** ****** ****** ****** ****** ****** ****** ******
      ****** ****** ****** ****** ****** ****** ****** ****** ****** ******
  23  ****** ****** ****** ****** ****** ****** ****** ****** ****** ******
      ****** ****** ****** ****** ****** ****** ****** ****** ****** ******
      ****** ****** ****** ****** ****** ****** ****** ****** ****** ******
  24  ****** ****** ****** ****** ****** ****** ****** ****** ****** ******
      ****** ****** ****** ****** ****** ****** ****** ****** ****** ******
      ****** ****** ****** ****** ****** ****** ****** ****** ****** ******
  25  ****** ****** ****** ****** ****** ****** ****** ****** ****** ******
      ****** ****** ****** ****** ****** ****** ****** ****** ****** ******
      ****** ****** ****** ****** ****** ****** ****** ****** ****** ******

 HEAD WILL BE SAVED ON UNIT   51 AT END OF TIME STEP    1, STRESS PERIOD    1
1
  VOLUMETRIC BUDGET FOR ENTIRE MODEL AT END OF TIME STEP    1, STRESS PERIOD   1
  ------------------------------------------------------------------------------

     CUMULATIVE VOLUMES      L**3       RATES FOR THIS TIME STEP      L**3/T
     ------------------                 ------------------------

           IN:                                      IN:
           ---                                      ---
             STORAGE =    19341836.0981               STORAGE =      210237.3489
       CONSTANT HEAD =   106053827.4582         CONSTANT HEAD =     1152758.9941
               WELLS =           0.0000                 WELLS =           0.0000
            RECHARGE =     1269600.0000              RECHARGE =       13800.0000
      STREAM LEAKAGE =           0.0000        STREAM LEAKAGE =           0.0000

            TOTAL IN =   126665263.5563              TOTAL IN =     1376796.3430

          OUT:                                     OUT:
          ----                                     ----
             STORAGE =           0.0000               STORAGE =           0.0000
       CONSTANT HEAD =           0.0000         CONSTANT HEAD =           0.0000
               WELLS =     7360000.0000                 WELLS =       80000.0000
            RECHARGE =           0.0000              RECHARGE =           0.0000
      STREAM LEAKAGE =   119305265.4515        STREAM LEAKAGE =     1296796.3636

           TOTAL OUT =   126665265.4515             TOTAL OUT =     1376796.3636

            IN - OUT =          -1.8952              IN - OUT =      -2.0600E-02

 PERCENT DISCREPANCY =          -0.00     PERCENT DISCREPANCY =          -0.00






         TIME SUMMARY AT END OF TIME STEP    1 IN STRESS PERIOD    1
                    SECONDS     MINUTES      HOURS       DAYS        YEARS
                    -----------------------------------------------------------
   TIME STEP LENGTH 7.94880E+06 1.32480E+05  2208.0      92.000     0.25188    
 STRESS PERIOD TIME 7.94880E+06 1.32480E+05  2208.0      92.000     0.25188    
         TOTAL TIME 7.94880E+06 1.32480E+05  2208.0      92.000     0.25188    
1
1
                            STRESS PERIOD NO.    2, LENGTH =   91.00000    
                            -----------------------------------------------

                              NUMBER OF TIME STEPS =     1

                               MULTIPLIER FOR DELT =     1.500

                            INITIAL TIME STEP SIZE =   91.00000    

 WELL NO.  LAYER   ROW   COL   STRESS RATE         
 --------------------------------------------------
      1      1      5      8     -0.5000E+05
      2      1      3      6     -0.3000E+05
      3      1      3      9      -5001.    

      3 WELLS

                 RECHARGE =  2.000000E-03

 REUSING STREAM SEGMENT DATA FROM LAST STRESS PERIOD
 
 SOLVING FOR HEAD 


     6 CALLS TO PCG ROUTINE FOR TIME STEP   1 IN STRESS PERIOD    2
    25 TOTAL ITERATIONS

 OUTPUT CONTROL FOR STRESS PERIOD    2   TIME STEP    1
    SAVE BUDGET
    SAVE HEAD FOR ALL LAYERS
    PRINT HEAD FOR ALL LAYERS
 UBDSV2 SAVING "STREAMFLOW OUT  " ON UNIT  50 AT TIME STEP  1, STRESS PERIOD   2



 STREAM LISTING     PERIOD      2   STEP        1

 LAYER ROW COL. STREAM  RCH.  FLOW INTO     FLOW TO   FLOW OUT OF   OVRLND.     DIRECT     STREAM       STREAM     STREAM     STREAM   STREAMBED  STREAMBED
                SEG.NO.  NO.  STRM. RCH.    AQUIFER    STRM. RCH.    RUNOFF     PRECIP       ET          HEAD       DEPTH      WIDTH   CONDCTNC.   GRADIENT

   1   13    1     1     1    1.0000E+05 -2.6794E+04   1.2679E+05  0.000E+00  0.000E+00  0.000E+00  4.84173E+01  1.560E-01  2.000E+01  2.000E+04 -1.340E+00
   1   13    2     1     2    1.2679E+05 -3.6138E+04   1.6293E+05  0.000E+00  0.000E+00  0.000E+00  4.79648E+01  1.807E-01  2.000E+01  2.000E+04 -1.807E+00
   1   14    3     1     3    1.6293E+05 -3.2229E+04   1.9516E+05  0.000E+00  0.000E+00  0.000E+00  4.75120E+01  2.052E-01  2.000E+01  2.000E+04 -1.611E+00
   1   15    4     1     4    1.9516E+05 -3.1888E+04   2.2705E+05  0.000E+00  0.000E+00  0.000E+00  4.70560E+01  2.265E-01  2.000E+01  2.000E+04 -1.594E+00
   1   16    5     1     5    2.2705E+05 -3.3849E+04   2.6090E+05  0.000E+00  0.000E+00  0.000E+00  4.65993E+01  2.470E-01  2.000E+01  2.000E+04 -1.692E+00
   1   16    6     1     6    2.6090E+05 -2.9426E+04   2.9032E+05  0.000E+00  0.000E+00  0.000E+00  4.61408E+01  2.658E-01  2.000E+01  2.000E+04 -1.471E+00
   1   16    7     1     7    2.9032E+05 -2.9197E+04   3.1952E+05  0.000E+00  0.000E+00  0.000E+00  4.56801E+01  2.824E-01  2.000E+01  2.000E+04 -1.460E+00
   1   16    8     1     8    3.1952E+05 -2.9383E+04   3.4891E+05  0.000E+00  0.000E+00  0.000E+00  4.52188E+01  2.984E-01  2.000E+01  2.000E+04 -1.469E+00
   1   16    9     1     9    3.4891E+05 -2.9508E+04   3.7841E+05  0.000E+00  0.000E+00  0.000E+00  4.47570E+01  3.139E-01  2.000E+01  2.000E+04 -1.475E+00
   1   16   10     1    10    3.7841E+05 -2.9620E+04   4.0803E+05  0.000E+00  0.000E+00  0.000E+00  4.42948E+01  3.289E-01  2.000E+01  2.000E+04 -1.481E+00
   1   16   11     1    11    4.0803E+05 -3.0359E+04   4.3839E+05  0.000E+00  0.000E+00  0.000E+00  4.38324E+01  3.438E-01  2.000E+01  2.000E+04 -1.518E+00
   1   16   12     1    12    4.3839E+05 -3.6140E+04   4.7453E+05  0.000E+00  0.000E+00  0.000E+00  4.33711E+01  3.597E-01  2.000E+01  2.000E+04 -1.807E+00
   1   15   13     1    13    4.7453E+05 -3.4630E+04   5.0916E+05  0.000E+00  0.000E+00  0.000E+00  4.29103E+01  3.762E-01  2.000E+01  2.000E+04 -1.732E+00
   1   14   14     1    14    5.0916E+05 -3.5073E+04   5.4424E+05  0.000E+00  0.000E+00  0.000E+00  4.24488E+01  3.920E-01  2.000E+01  2.000E+04 -1.754E+00
   1   13   15     1    15    5.4424E+05 -3.7196E+04   5.8143E+05  0.000E+00  0.000E+00  0.000E+00  4.19874E+01  4.079E-01  2.000E+01  2.000E+04 -1.860E+00
   1   12   16     1    16    5.8143E+05 -4.3144E+04   6.2458E+05  0.000E+00  0.000E+00  0.000E+00  4.15274E+01  4.251E-01  2.000E+01  2.000E+04 -2.157E+00
   1   12   17     1    17    6.2458E+05 -3.4051E+04   6.5863E+05  0.000E+00  0.000E+00  0.000E+00  4.10662E+01  4.412E-01  2.000E+01  2.000E+04 -1.703E+00
   1   12   18     1    18    6.5863E+05 -3.2602E+04   6.9123E+05  0.000E+00  0.000E+00  0.000E+00  4.06026E+01  4.549E-01  2.000E+01  2.000E+04 -1.630E+00
   1   12   19     1    19    6.9123E+05 -3.6814E+04   7.2804E+05  0.000E+00  0.000E+00  0.000E+00  4.01392E+01  4.688E-01  2.000E+01  2.000E+04 -1.841E+00
   1   13   20     1    20    7.2804E+05 -2.7289E+04   7.5533E+05  0.000E+00  0.000E+00  0.000E+00  3.96745E+01  4.813E-01  2.000E+01  2.000E+04 -1.364E+00
   1   14   21     1    21    7.5533E+05 -2.0239E+04   7.7557E+05  0.000E+00  0.000E+00  0.000E+00  3.92064E+01  4.905E-01  2.000E+01  2.000E+04 -1.012E+00
   1   14   22     1    22    7.7557E+05 -1.9667E+03   7.7754E+05  0.000E+00  0.000E+00  0.000E+00  3.87334E+01  4.948E-01  2.000E+01  2.000E+04 -9.833E-02
   1    9   30     2     1    5.0000E+04 -2.6999E+04   7.6999E+04  0.000E+00  0.000E+00  0.000E+00  4.02587E+01  1.337E-01  2.000E+01  2.000E+04 -1.350E+00
   1    9   29     2     2    7.6999E+04 -2.9463E+04   1.0646E+05  0.000E+00  0.000E+00  0.000E+00  4.00418E+01  1.668E-01  2.000E+01  2.000E+04 -1.473E+00
   1    9   28     2     3    1.0646E+05 -3.3759E+04   1.4022E+05  0.000E+00  0.000E+00  0.000E+00  3.98242E+01  1.992E-01  2.000E+01  2.000E+04 -1.688E+00
   1    9   27     2     4    1.4022E+05 -4.7966E+04   1.8819E+05  0.000E+00  0.000E+00  0.000E+00  3.96115E+01  2.365E-01  2.000E+01  2.000E+04 -2.398E+00
   1   10   26     2     5    1.8819E+05 -3.3958E+04   2.2214E+05  0.000E+00  0.000E+00  0.000E+00  3.93953E+01  2.703E-01  2.000E+01  2.000E+04 -1.698E+00
   1   11   25     2     6    2.2214E+05 -2.5585E+04   2.4773E+05  0.000E+00  0.000E+00  0.000E+00  3.91682E+01  2.932E-01  2.000E+01  2.000E+04 -1.279E+00
   1   12   24     2     7    2.4773E+05 -1.8957E+04   2.6669E+05  0.000E+00  0.000E+00  0.000E+00  3.89346E+01  3.096E-01  2.000E+01  2.000E+04 -9.479E-01
   1   13   23     2     8    2.6669E+05 -1.3526E+04   2.8021E+05  0.000E+00  0.000E+00  0.000E+00  3.86961E+01  3.211E-01  2.000E+01  2.000E+04 -6.763E-01
   1   14   22     2     9    2.8021E+05 -7.5650E+03   2.8778E+05  0.000E+00  0.000E+00  0.000E+00  3.84535E+01  3.285E-01  2.000E+01  2.000E+04 -3.783E-01
   1   14   22     3     1    1.0653E+06 -1.5554E+04   1.0809E+06  0.000E+00  0.000E+00  0.000E+00  3.80541E+01  4.985E-01  2.000E+01  2.000E+04 -7.777E-01
   1   15   23     3     2    1.0809E+06 -2.4217E+04   1.1051E+06  0.000E+00  0.000E+00  0.000E+00  3.71707E+01  5.040E-01  2.000E+01  2.000E+04 -1.211E+00
   1   15   24     3     3    1.1051E+06 -2.0150E+04   1.1252E+06  0.000E+00  0.000E+00  0.000E+00  3.62879E+01  5.102E-01  2.000E+01  2.000E+04 -1.008E+00
   1   15   25     3     4    1.1252E+06 -1.9739E+04   1.1450E+06  0.000E+00  0.000E+00  0.000E+00  3.54045E+01  5.156E-01  2.000E+01  2.000E+04 -9.869E-01
   1   15   26     3     5    1.1450E+06 -2.2559E+04   1.1675E+06  0.000E+00  0.000E+00  0.000E+00  3.45214E+01  5.214E-01  2.000E+01  2.000E+04 -1.128E+00
   1   16   27     3     6    1.1675E+06 -2.9839E+04   1.1974E+06  0.000E+00  0.000E+00  0.000E+00  3.36395E+01  5.284E-01  2.000E+01  2.000E+04 -1.492E+00
   1   17   28     3     7    1.1974E+06 -3.6912E+04   1.2343E+06  0.000E+00  0.000E+00  0.000E+00  3.27595E+01  5.373E-01  2.000E+01  2.000E+04 -1.846E+00
   1   18   29     3     8    1.2343E+06 -4.7866E+04   1.2822E+06  0.000E+00  0.000E+00  0.000E+00  3.18818E+01  5.485E-01  2.000E+01  2.000E+04 -2.393E+00
   1   18   30     3     9    1.2822E+06 -4.4193E+04   1.3263E+06  0.000E+00  0.000E+00  0.000E+00  3.10049E+01  5.604E-01  2.000E+01  2.000E+04 -2.210E+00



1
              HEAD IN LAYER   1 AT END OF TIME STEP   1 IN STRESS PERIOD    2
  ---------------------------------------------------------------------------

          1      2      3      4      5      6      7      8      9     10
         11     12     13     14     15     16     17     18     19     20
         21     22     23     24     25     26     27     28     29     30
 .........................................................................
   1  ****** ****** ****** ****** ****** ****** ****** ****** ****** ******
      ****** ****** ****** ****** ****** ****** ****** ****** ****** ******
      ****** ****** ****** ****** ****** ****** ****** ****** ****** ******
   2  ****** ****** ****** ****** ****** ****** ****** ****** ****** ******
      ****** ****** ****** ****** ****** ****** ****** ****** ****** ******
      ****** ****** ****** ****** ****** ****** ****** ****** ****** ******
   3  ****** ****** ****** ****** ****** ****** ****** ****** ****** ******
      ****** ****** ****** ****** ****** ****** ****** ****** ****** ******
      ****** ****** ****** ****** ****** ****** ****** ****** ****** ******
   4  ****** ****** ****** ****** ****** ****** ****** ****** ****** ******
      ****** ****** ****** ****** ****** ****** ****** ****** ****** ******
      ****** ****** ****** ****** ****** ****** ****** ****** ****** ******
   5  ****** ****** ****** ****** ****** ****** ****** ****** ****** ******
      ****** ****** ****** ****** ****** ****** ****** ****** ****** ******
      ****** ****** ****** ****** ****** ****** ****** ****** ****** ******
   6  ****** ****** ****** ****** ****** ****** ****** ****** ****** ******
      ****** ****** ****** ****** ****** ****** ****** ****** ****** ******
      ****** ****** ****** ****** ****** ****** ****** ****** ****** ******
   7  ****** ****** ****** ****** ****** ****** ****** ****** ****** ******
      ****** ****** ****** ****** ****** ****** ****** ****** ****** ******
      ****** ****** ****** ****** ****** ****** ****** ****** ****** ******
   8  ****** ****** ****** ****** ****** ****** ****** ****** ****** ******
      ****** ****** ****** ****** ****** ****** ****** ****** ****** ******
      ****** ****** ****** ****** ****** ****** ****** ****** ****** ******
   9  ****** ****** ****** ****** ****** ****** ****** ****** ****** ******
      ****** ****** ****** ****** ****** ****** ****** ****** ****** ******
      ****** ****** ****** ****** ****** ****** ****** ****** ****** ******
  10  ****** ****** ****** ****** ****** ****** ****** ****** ****** ******
      ****** ****** ****** ****** ****** ****** ****** ****** ****** ******
      ****** ****** ****** ****** ****** ****** ****** ****** ****** ******
  11  ****** ****** ****** ****** ****** ****** ****** ****** ****** ******
      ****** ****** ****** ****** ****** ****** ****** ****** ****** ******
      ****** ****** ****** ****** ****** ****** ****** ****** ****** ******
  12  ****** ****** ****** ****** ****** ****** ****** ****** ****** ******
      ****** ****** ****** ****** ****** ****** ****** ****** ****** ******
      ****** ****** ****** ****** ****** ****** ****** ****** ****** ******
  13  ****** ****** ****** ****** ****** ****** ****** ****** ****** ******
      ****** ****** ****** ****** ****** ****** ****** ****** ****** ******
      ****** ****** ****** ****** ****** ****** ****** ****** ****** ******
  14  ****** ****** ****** ****** ****** ****** ****** ****** ****** ******
      ****** ****** ****** ****** ****** ****** ****** ****** ****** ******
      ****** ****** ****** ****** ****** ****** ****** ****** ****** ******
  15  ****** ****** ****** ****** ****** ****** ****** ****** ****** ******
      ****** ****** ****** ****** ****** ****** ****** ****** ****** ******
      ****** ****** ****** ****** ****** ****** ****** ****** ****** ******
  16  ****** ****** ****** ****** ****** ****** ****** ****** ****** ******
      ****** ****** ****** ****** ****** ****** ****** ****** ****** ******
      ****** ****** ****** ****** ****** ****** ****** ****** ****** ******
  17  ****** ****** ****** ****** ****** ****** ****** ****** ****** ******
      ****** ****** ****** ****** ****** ****** ****** ****** ****** ******
      ****** ****** ****** ****** ****** ****** ****** ****** ****** ******
  18  ****** ****** ****** ****** ****** ****** ****** ****** ****** ******
      ****** ****** ****** ****** ****** ****** ****** ****** ****** ******
      ****** ****** ****** ****** ****** ****** ****** ****** ****** ******
  19  ****** ****** ****** ****** ****** ****** ****** ****** ****** ******
      ****** ****** ****** ****** ****** ****** ****** ****** ****** ******
      ****** ****** ****** ****** ****** ****** ****** ****** ****** ******
  20  ****** ****** ****** ****** ****** ****** ****** ****** ****** ******
      ****** ****** ****** ****** ****** ****** ****** ****** ****** ******
      ****** ****** ****** ****** ****** ****** ****** ****** ****** ******
  21  ****** ****** ****** ****** ****** ****** ****** ****** ****** ******
      ****** ****** ****** ****** ****** ****** ****** ****** ****** ******
      ****** ****** ****** ****** ****** ****** ****** ****** ****** ******
  22  ****** ****** ****** ****** ****** ****** ****** ****** ****** ******
      ****** ****** ****** ****** ****** ****** ****** ****** ****** ******
      ****** ****** ****** ****** ****** ****** ****** ****** ****** ******
  23  ****** ****** ****** ****** ****** ****** ****** ****** ****** ******
      ****** ****** ****** ****** ****** ****** ****** ****** ****** ******
      ****** ****** ****** ****** ****** ****** ****** ****** ****** ******
  24  ****** ****** ****** ****** ****** ****** ****** ****** ****** ******
      ****** ****** ****** ****** ****** ****** ****** ****** ****** ******
      ****** ****** ****** ****** ****** ****** ****** ****** ****** ******
  25  ****** ****** ****** ****** ****** ****** ****** ****** ****** ******
      ****** ****** ****** ****** ****** ****** ****** ****** ****** ******
      ****** ****** ****** ****** ****** ****** ****** ****** ****** ******

 HEAD WILL BE SAVED ON UNIT   51 AT END OF TIME STEP    1, STRESS PERIOD    2
1
  VOLUMETRIC BUDGET FOR ENTIRE MODEL AT END OF TIME STEP    1, STRESS PERIOD   2
  ------------------------------------------------------------------------------

     CUMULATIVE VOLUMES      L**3       RATES FOR THIS TIME STEP      L**3/T
     ------------------                 ------------------------

           IN:                                      IN:
           ---                                      ---
             STORAGE =    20062489.8719               STORAGE =        7919.2722
       CONSTANT HEAD =   215092378.4638         CONSTANT HEAD =     1198225.8352
               WELLS =           0.0000                 WELLS =           0.0000
            RECHARGE =     6292800.0000              RECHARGE =       55200.0000
      STREAM LEAKAGE =           0.0000        STREAM LEAKAGE =           0.0000

            TOTAL IN =   241447668.3357              TOTAL IN =     1261345.1075

          OUT:                                     OUT:
          ----                                     ----
             STORAGE =           0.0000               STORAGE =           0.0000
       CONSTANT HEAD =           0.0000         CONSTANT HEAD =           0.0000
               WELLS =    15095045.5000                 WELLS =       85000.5000
            RECHARGE =           0.0000              RECHARGE =           0.0000
      STREAM LEAKAGE =   226352626.4346        STREAM LEAKAGE =     1176344.6262

           TOTAL OUT =   241447671.9346             TOTAL OUT =     1261345.1262

            IN - OUT =          -3.5988              IN - OUT =      -1.8721E-02

 PERCENT DISCREPANCY =          -0.00     PERCENT DISCREPANCY =          -0.00






         TIME SUMMARY AT END OF TIME STEP    1 IN STRESS PERIOD    2
                    SECONDS     MINUTES      HOURS       DAYS        YEARS
                    -----------------------------------------------------------
   TIME STEP LENGTH 7.86240E+06 1.31040E+05  2184.0      91.000     0.24914    
 STRESS PERIOD TIME 7.86240E+06 1.31040E+05  2184.0      91.000     0.24914    
         TOTAL TIME 1.58112E+07 2.63520E+05  4392.0      183.00     0.50103    
1
1
                            STRESS PERIOD NO.    3, LENGTH =   91.00000    
                            -----------------------------------------------

                              NUMBER OF TIME STEPS =     1

                               MULTIPLIER FOR DELT =     1.500

                            INITIAL TIME STEP SIZE =   91.00000    

 WELL NO.  LAYER   ROW   COL   STRESS RATE         
 --------------------------------------------------
      1      1      5      8     -0.5000E+05
      2      1      3      6     -0.3000E+05

      2 WELLS

                 RECHARGE =   0.00000    

 REUSING STREAM SEGMENT DATA FROM LAST STRESS PERIOD
 
 SOLVING FOR HEAD 


     6 CALLS TO PCG ROUTINE FOR TIME STEP   1 IN STRESS PERIOD    3
    23 TOTAL ITERATIONS

 OUTPUT CONTROL FOR STRESS PERIOD    3   TIME STEP    1
    SAVE BUDGET
    SAVE HEAD FOR ALL LAYERS
    PRINT HEAD FOR ALL LAYERS
 UBDSV2 SAVING "STREAMFLOW OUT  " ON UNIT  50 AT TIME STEP  1, STRESS PERIOD   3



 STREAM LISTING     PERIOD      3   STEP        1

 LAYER ROW COL. STREAM  RCH.  FLOW INTO     FLOW TO   FLOW OUT OF   OVRLND.     DIRECT     STREAM       STREAM     STREAM     STREAM   STREAMBED  STREAMBED
                SEG.NO.  NO.  STRM. RCH.    AQUIFER    STRM. RCH.    RUNOFF     PRECIP       ET          HEAD       DEPTH      WIDTH   CONDCTNC.   GRADIENT

   1   13    1     1     1    1.0000E+05 -2.5789E+04   1.2579E+05  0.000E+00  0.000E+00  0.000E+00  4.84169E+01  1.556E-01  2.000E+01  2.000E+04 -1.289E+00
   1   13    2     1     2    1.2579E+05 -3.4934E+04   1.6072E+05  0.000E+00  0.000E+00  0.000E+00  4.79636E+01  1.795E-01  2.000E+01  2.000E+04 -1.747E+00
   1   14    3     1     3    1.6072E+05 -3.1056E+04   1.9178E+05  0.000E+00  0.000E+00  0.000E+00  4.75101E+01  2.032E-01  2.000E+01  2.000E+04 -1.553E+00
   1   15    4     1     4    1.9178E+05 -3.0765E+04   2.2254E+05  0.000E+00  0.000E+00  0.000E+00  4.70535E+01  2.239E-01  2.000E+01  2.000E+04 -1.538E+00
   1   16    5     1     5    2.2254E+05 -3.2842E+04   2.5539E+05  0.000E+00  0.000E+00  0.000E+00  4.65962E+01  2.440E-01  2.000E+01  2.000E+04 -1.642E+00
   1   16    6     1     6    2.5539E+05 -2.8550E+04   2.8394E+05  0.000E+00  0.000E+00  0.000E+00  4.61373E+01  2.623E-01  2.000E+01  2.000E+04 -1.427E+00
   1   16    7     1     7    2.8394E+05 -2.8329E+04   3.1226E+05  0.000E+00  0.000E+00  0.000E+00  4.56763E+01  2.786E-01  2.000E+01  2.000E+04 -1.416E+00
   1   16    8     1     8    3.1226E+05 -2.8512E+04   3.4078E+05  0.000E+00  0.000E+00  0.000E+00  4.52147E+01  2.942E-01  2.000E+01  2.000E+04 -1.426E+00
   1   16    9     1     9    3.4078E+05 -2.8637E+04   3.6941E+05  0.000E+00  0.000E+00  0.000E+00  4.47526E+01  3.094E-01  2.000E+01  2.000E+04 -1.432E+00
   1   16   10     1    10    3.6941E+05 -2.8751E+04   3.9816E+05  0.000E+00  0.000E+00  0.000E+00  4.42901E+01  3.242E-01  2.000E+01  2.000E+04 -1.438E+00
   1   16   11     1    11    3.9816E+05 -2.9478E+04   4.2764E+05  0.000E+00  0.000E+00  0.000E+00  4.38274E+01  3.387E-01  2.000E+01  2.000E+04 -1.474E+00
   1   16   12     1    12    4.2764E+05 -3.5110E+04   4.6275E+05  0.000E+00  0.000E+00  0.000E+00  4.33657E+01  3.544E-01  2.000E+01  2.000E+04 -1.756E+00
   1   15   13     1    13    4.6275E+05 -3.3489E+04   4.9624E+05  0.000E+00  0.000E+00  0.000E+00  4.29046E+01  3.705E-01  2.000E+01  2.000E+04 -1.674E+00
   1   14   14     1    14    4.9624E+05 -3.3893E+04   5.3014E+05  0.000E+00  0.000E+00  0.000E+00  4.24427E+01  3.859E-01  2.000E+01  2.000E+04 -1.695E+00
   1   13   15     1    15    5.3014E+05 -3.6027E+04   5.6616E+05  0.000E+00  0.000E+00  0.000E+00  4.19810E+01  4.015E-01  2.000E+01  2.000E+04 -1.801E+00
   1   12   16     1    16    5.6616E+05 -4.2018E+04   6.0818E+05  0.000E+00  0.000E+00  0.000E+00  4.15207E+01  4.184E-01  2.000E+01  2.000E+04 -2.101E+00
   1   12   17     1    17    6.0818E+05 -3.3145E+04   6.4133E+05  0.000E+00  0.000E+00  0.000E+00  4.10593E+01  4.343E-01  2.000E+01  2.000E+04 -1.657E+00
   1   12   18     1    18    6.4133E+05 -3.1737E+04   6.7306E+05  0.000E+00  0.000E+00  0.000E+00  4.05954E+01  4.477E-01  2.000E+01  2.000E+04 -1.587E+00
   1   12   19     1    19    6.7306E+05 -3.5869E+04   7.0893E+05  0.000E+00  0.000E+00  0.000E+00  4.01318E+01  4.613E-01  2.000E+01  2.000E+04 -1.793E+00
   1   13   20     1    20    7.0893E+05 -2.6409E+04   7.3534E+05  0.000E+00  0.000E+00  0.000E+00  3.96669E+01  4.737E-01  2.000E+01  2.000E+04 -1.320E+00
   1   14   21     1    21    7.3534E+05 -1.9481E+04   7.5482E+05  0.000E+00  0.000E+00  0.000E+00  3.91986E+01  4.827E-01  2.000E+01  2.000E+04 -9.740E-01
   1   14   22     1    22    7.5482E+05 -1.7049E+03   7.5652E+05  0.000E+00  0.000E+00  0.000E+00  3.87254E+01  4.868E-01  2.000E+01  2.000E+04 -8.525E-02
   1    9   30     2     1    5.0000E+04 -2.6332E+04   7.6332E+04  0.000E+00  0.000E+00  0.000E+00  4.02583E+01  1.333E-01  2.000E+01  2.000E+04 -1.317E+00
   1    9   29     2     2    7.6332E+04 -2.8796E+04   1.0513E+05  0.000E+00  0.000E+00  0.000E+00  4.00407E+01  1.657E-01  2.000E+01  2.000E+04 -1.440E+00
   1    9   28     2     3    1.0513E+05 -3.3068E+04   1.3820E+05  0.000E+00  0.000E+00  0.000E+00  3.98225E+01  1.975E-01  2.000E+01  2.000E+04 -1.653E+00
   1    9   27     2     4    1.3820E+05 -4.7115E+04   1.8531E+05  0.000E+00  0.000E+00  0.000E+00  3.96094E+01  2.344E-01  2.000E+01  2.000E+04 -2.356E+00
   1   10   26     2     5    1.8531E+05 -3.3071E+04   2.1838E+05  0.000E+00  0.000E+00  0.000E+00  3.93927E+01  2.677E-01  2.000E+01  2.000E+04 -1.654E+00
   1   11   25     2     6    2.1838E+05 -2.4730E+04   2.4311E+05  0.000E+00  0.000E+00  0.000E+00  3.91650E+01  2.900E-01  2.000E+01  2.000E+04 -1.236E+00
   1   12   24     2     7    2.4311E+05 -1.8195E+04   2.6131E+05  0.000E+00  0.000E+00  0.000E+00  3.89309E+01  3.059E-01  2.000E+01  2.000E+04 -9.097E-01
   1   13   23     2     8    2.6131E+05 -1.2909E+04   2.7421E+05  0.000E+00  0.000E+00  0.000E+00  3.86921E+01  3.171E-01  2.000E+01  2.000E+04 -6.455E-01
   1   14   22     2     9    2.7421E+05 -7.2287E+03   2.8144E+05  0.000E+00  0.000E+00  0.000E+00  3.84492E+01  3.242E-01  2.000E+01  2.000E+04 -3.614E-01
   1   14   22     3     1    1.0380E+06 -1.5286E+04   1.0533E+06  0.000E+00  0.000E+00  0.000E+00  3.80464E+01  4.908E-01  2.000E+01  2.000E+04 -7.643E-01
   1   15   23     3     2    1.0533E+06 -2.3516E+04   1.0768E+06  0.000E+00  0.000E+00  0.000E+00  3.71629E+01  4.963E-01  2.000E+01  2.000E+04 -1.176E+00
   1   15   24     3     3    1.0768E+06 -1.9576E+04   1.0963E+06  0.000E+00  0.000E+00  0.000E+00  3.62800E+01  5.023E-01  2.000E+01  2.000E+04 -9.788E-01
   1   15   25     3     4    1.0963E+06 -1.9170E+04   1.1155E+06  0.000E+00  0.000E+00  0.000E+00  3.53965E+01  5.076E-01  2.000E+01  2.000E+04 -9.585E-01
   1   15   26     3     5    1.1155E+06 -2.1894E+04   1.1374E+06  0.000E+00  0.000E+00  0.000E+00  3.45133E+01  5.133E-01  2.000E+01  2.000E+04 -1.095E+00
   1   16   27     3     6    1.1374E+06 -2.9033E+04   1.1664E+06  0.000E+00  0.000E+00  0.000E+00  3.36313E+01  5.202E-01  2.000E+01  2.000E+04 -1.452E+00
   1   17   28     3     7    1.1664E+06 -3.6089E+04   1.2025E+06  0.000E+00  0.000E+00  0.000E+00  3.27512E+01  5.290E-01  2.000E+01  2.000E+04 -1.804E+00
   1   18   29     3     8    1.2025E+06 -4.7098E+04   1.2496E+06  0.000E+00  0.000E+00  0.000E+00  3.18734E+01  5.400E-01  2.000E+01  2.000E+04 -2.355E+00
   1   18   30     3     9    1.2496E+06 -4.3555E+04   1.2932E+06  0.000E+00  0.000E+00  0.000E+00  3.09964E+01  5.519E-01  2.000E+01  2.000E+04 -2.178E+00



1
              HEAD IN LAYER   1 AT END OF TIME STEP   1 IN STRESS PERIOD    3
  ---------------------------------------------------------------------------

          1      2      3      4      5      6      7      8      9     10
         11     12     13     14     15     16     17     18     19     20
         21     22     23     24     25     26     27     28     29     30
 .........................................................................
   1  ****** ****** ****** ****** ****** ****** ****** ****** ****** ******
      ****** ****** ****** ****** ****** ****** ****** ****** ****** ******
      ****** ****** ****** ****** ****** ****** ****** ****** ****** ******
   2  ****** ****** ****** ****** ****** ****** ****** ****** ****** ******
      ****** ****** ****** ****** ****** ****** ****** ****** ****** ******
      ****** ****** ****** ****** ****** ****** ****** ****** ****** ******
   3  ****** ****** ****** ****** ****** ****** ****** ****** ****** ******
      ****** ****** ****** ****** ****** ****** ****** ****** ****** ******
      ****** ****** ****** ****** ****** ****** ****** ****** ****** ******
   4  ****** ****** ****** ****** ****** ****** ****** ****** ****** ******
      ****** ****** ****** ****** ****** ****** ****** ****** ****** ******
      ****** ****** ****** ****** ****** ****** ****** ****** ****** ******
   5  ****** ****** ****** ****** ****** ****** ****** ****** ****** ******
      ****** ****** ****** ****** ****** ****** ****** ****** ****** ******
      ****** ****** ****** ****** ****** ****** ****** ****** ****** ******
   6  ****** ****** ****** ****** ****** ****** ****** ****** ****** ******
      ****** ****** ****** ****** ****** ****** ****** ****** ****** ******
      ****** ****** ****** ****** ****** ****** ****** ****** ****** ******
   7  ****** ****** ****** ****** ****** ****** ****** ****** ****** ******
      ****** ****** ****** ****** ****** ****** ****** ****** ****** ******
      ****** ****** ****** ****** ****** ****** ****** ****** ****** ******
   8  ****** ****** ****** ****** ****** ****** ****** ****** ****** ******
      ****** ****** ****** ****** ****** ****** ****** ****** ****** ******
      ****** ****** ****** ****** ****** ****** ****** ****** ****** ******
   9  ****** ****** ****** ****** ****** ****** ****** ****** ****** ******
      ****** ****** ****** ****** ****** ****** ****** ****** ****** ******
      ****** ****** ****** ****** ****** ****** ****** ****** ****** ******
  10  ****** ****** ****** ****** ****** ****** ****** ****** ****** ******
      ****** ****** ****** ****** ****** ****** ****** ****** ****** ******
      ****** ****** ****** ****** ****** ****** ****** ****** ****** ******
  11  ****** ****** ****** ****** ****** ****** ****** ****** ****** ******
      ****** ****** ****** ****** ****** ****** ****** ****** ****** ******
      ****** ****** ****** ****** ****** ****** ****** ****** ****** ******
  12  ****** ****** ****** ****** ****** ****** ****** ****** ****** ******
      ****** ****** ****** ****** ****** ****** ****** ****** ****** ******
      ****** ****** ****** ****** ****** ****** ****** ****** ****** ******
  13  ****** ****** ****** ****** ****** ****** ****** ****** ****** ******
      ****** ****** ****** ****** ****** ****** ****** ****** ****** ******
      ****** ****** ****** ****** ****** ****** ****** ****** ****** ******
  14  ****** ****** ****** ****** ****** ****** ****** ****** ****** ******
      ****** ****** ****** ****** ****** ****** ****** ****** ****** ******
      ****** ****** ****** ****** ****** ****** ****** ****** ****** ******
  15  ****** ****** ****** ****** ****** ****** ****** ****** ****** ******
      ****** ****** ****** ****** ****** ****** ****** ****** ****** ******
      ****** ****** ****** ****** ****** ****** ****** ****** ****** ******
  16  ****** ****** ****** ****** ****** ****** ****** ****** ****** ******
      ****** ****** ****** ****** ****** ****** ****** ****** ****** ******
      ****** ****** ****** ****** ****** ****** ****** ****** ****** ******
  17  ****** ****** ****** ****** ****** ****** ****** ****** ****** ******
      ****** ****** ****** ****** ****** ****** ****** ****** ****** ******
      ****** ****** ****** ****** ****** ****** ****** ****** ****** ******
  18  ****** ****** ****** ****** ****** ****** ****** ****** ****** ******
      ****** ****** ****** ****** ****** ****** ****** ****** ****** ******
      ****** ****** ****** ****** ****** ****** ****** ****** ****** ******
  19  ****** ****** ****** ****** ****** ****** ****** ****** ****** ******
      ****** ****** ****** ****** ****** ****** ****** ****** ****** ******
      ****** ****** ****** ****** ****** ****** ****** ****** ****** ******
  20  ****** ****** ****** ****** ****** ****** ****** ****** ****** ******
      ****** ****** ****** ****** ****** ****** ****** ****** ****** ******
      ****** ****** ****** ****** ****** ****** ****** ****** ****** ******
  21  ****** ****** ****** ****** ****** ****** ****** ****** ****** ******
      ****** ****** ****** ****** ****** ****** ****** ****** ****** ******
      ****** ****** ****** ****** ****** ****** ****** ****** ****** ******
  22  ****** ****** ****** ****** ****** ****** ****** ****** ****** ******
      ****** ****** ****** ****** ****** ****** ****** ****** ****** ******
      ****** ****** ****** ****** ****** ****** ****** ****** ****** ******
  23  ****** ****** ****** ****** ****** ****** ****** ****** ****** ******
      ****** ****** ****** ****** ****** ****** ****** ****** ****** ******
      ****** ****** ****** ****** ****** ****** ****** ****** ****** ******
  24  ****** ****** ****** ****** ****** ****** ****** ****** ****** ******
      ****** ****** ****** ****** ****** ****** ****** ****** ****** ******
      ****** ****** ****** ****** ****** ****** ****** ****** ****** ******
  25  ****** ****** ****** ****** ****** ****** ****** ****** ****** ******
      ****** ****** ****** ****** ****** ****** ****** ****** ****** ******
      ****** ****** ****** ****** ****** ****** ****** ****** ****** ******

 HEAD WILL BE SAVED ON UNIT   51 AT END OF TIME STEP    1, STRESS PERIOD    3
1
  VOLUMETRIC BUDGET FOR ENTIRE MODEL AT END OF TIME STEP    1, STRESS PERIOD   3
  ------------------------------------------------------------------------------

     CUMULATIVE VOLUMES      L**3       RATES FOR THIS TIME STEP      L**3/T
     ------------------                 ------------------------

           IN:                                      IN:
           ---                                      ---
             STORAGE =    20322663.8326               STORAGE =        2859.0545
       CONSTANT HEAD =   326142851.2192         CONSTANT HEAD =     1220334.8654
               WELLS =           0.0000                 WELLS =           0.0000
            RECHARGE =     6292800.0000              RECHARGE =           0.0000
      STREAM LEAKAGE =           0.0000        STREAM LEAKAGE =           0.0000

            TOTAL IN =   352758315.0518              TOTAL IN =     1223193.9200

          OUT:                                     OUT:
          ----                                     ----
             STORAGE =         732.8383               STORAGE =           8.0532
       CONSTANT HEAD =           0.0000         CONSTANT HEAD =           0.0000
               WELLS =    22375045.5000                 WELLS =       80000.0000
            RECHARGE =           0.0000              RECHARGE =           0.0000
      STREAM LEAKAGE =   330382544.1775        STREAM LEAKAGE =     1143185.9093

           TOTAL OUT =   352758322.5158             TOTAL OUT =     1223193.9624

            IN - OUT =          -7.4640              IN - OUT =      -4.2474E-02

 PERCENT DISCREPANCY =          -0.00     PERCENT DISCREPANCY =          -0.00






         TIME SUMMARY AT END OF TIME STEP    1 IN STRESS PERIOD    3
                    SECONDS     MINUTES      HOURS       DAYS        YEARS
                    -----------------------------------------------------------
   TIME STEP LENGTH 7.86240E+06 1.31040E+05  2184.0      91.000     0.24914    
 STRESS PERIOD TIME 7.86240E+06 1.31040E+05  2184.0      91.000     0.24914    
         TOTAL TIME 2.36736E+07 3.94560E+05  6576.0      274.00     0.75017    
1
1
                            STRESS PERIOD NO.    4, LENGTH =   91.00000    
                            -----------------------------------------------

                              NUMBER OF TIME STEPS =     1

                               MULTIPLIER FOR DELT =     1.500

                            INITIAL TIME STEP SIZE =   91.00000    

 WELL NO.  LAYER   ROW   COL   STRESS RATE         
 --------------------------------------------------
      1      1      5      8     -0.5000E+05
      2      1      3      6     -0.3000E+05
      3      1      3      9       0.000    

      3 WELLS

                 RECHARGE =  1.000000E-03

 REUSING STREAM SEGMENT DATA FROM LAST STRESS PERIOD
 
 SOLVING FOR HEAD 


     6 CALLS TO PCG ROUTINE FOR TIME STEP   1 IN STRESS PERIOD    4
    22 TOTAL ITERATIONS

 OUTPUT CONTROL FOR STRESS PERIOD    4   TIME STEP    1
    SAVE BUDGET
    SAVE HEAD FOR ALL LAYERS
    PRINT HEAD FOR ALL LAYERS
 UBDSV2 SAVING "STREAMFLOW OUT  " ON UNIT  50 AT TIME STEP  1, STRESS PERIOD   4



 STREAM LISTING     PERIOD      4   STEP        1

 LAYER ROW COL. STREAM  RCH.  FLOW INTO     FLOW TO   FLOW OUT OF   OVRLND.     DIRECT     STREAM       STREAM     STREAM     STREAM   STREAMBED  STREAMBED
                SEG.NO.  NO.  STRM. RCH.    AQUIFER    STRM. RCH.    RUNOFF     PRECIP       ET          HEAD       DEPTH      WIDTH   CONDCTNC.   GRADIENT

   1   13    1     1     1    1.0000E+05 -2.6173E+04   1.2617E+05  0.000E+00  0.000E+00  0.000E+00  4.84171E+01  1.557E-01  2.000E+01  2.000E+04 -1.309E+00
   1   13    2     1     2    1.2617E+05 -3.5391E+04   1.6156E+05  0.000E+00  0.000E+00  0.000E+00  4.79640E+01  1.799E-01  2.000E+01  2.000E+04 -1.770E+00
   1   14    3     1     3    1.6156E+05 -3.1509E+04   1.9307E+05  0.000E+00  0.000E+00  0.000E+00  4.75108E+01  2.040E-01  2.000E+01  2.000E+04 -1.575E+00
   1   15    4     1     4    1.9307E+05 -3.1203E+04   2.2428E+05  0.000E+00  0.000E+00  0.000E+00  4.70545E+01  2.249E-01  2.000E+01  2.000E+04 -1.560E+00
   1   16    5     1     5    2.2428E+05 -3.3241E+04   2.5752E+05  0.000E+00  0.000E+00  0.000E+00  4.65974E+01  2.451E-01  2.000E+01  2.000E+04 -1.662E+00
   1   16    6     1     6    2.5752E+05 -2.8896E+04   2.8641E+05  0.000E+00  0.000E+00  0.000E+00  4.61387E+01  2.637E-01  2.000E+01  2.000E+04 -1.445E+00
   1   16    7     1     7    2.8641E+05 -2.8671E+04   3.1508E+05  0.000E+00  0.000E+00  0.000E+00  4.56778E+01  2.801E-01  2.000E+01  2.000E+04 -1.434E+00
   1   16    8     1     8    3.1508E+05 -2.8855E+04   3.4394E+05  0.000E+00  0.000E+00  0.000E+00  4.52163E+01  2.958E-01  2.000E+01  2.000E+04 -1.443E+00
   1   16    9     1     9    3.4394E+05 -2.8980E+04   3.7292E+05  0.000E+00  0.000E+00  0.000E+00  4.47543E+01  3.111E-01  2.000E+01  2.000E+04 -1.449E+00
   1   16   10     1    10    3.7292E+05 -2.9093E+04   4.0201E+05  0.000E+00  0.000E+00  0.000E+00  4.42919E+01  3.260E-01  2.000E+01  2.000E+04 -1.455E+00
   1   16   11     1    11    4.0201E+05 -2.9825E+04   4.3184E+05  0.000E+00  0.000E+00  0.000E+00  4.38293E+01  3.407E-01  2.000E+01  2.000E+04 -1.491E+00
   1   16   12     1    12    4.3184E+05 -3.5515E+04   4.6735E+05  0.000E+00  0.000E+00  0.000E+00  4.33678E+01  3.565E-01  2.000E+01  2.000E+04 -1.776E+00
   1   15   13     1    13    4.6735E+05 -3.3933E+04   5.0129E+05  0.000E+00  0.000E+00  0.000E+00  4.29068E+01  3.727E-01  2.000E+01  2.000E+04 -1.697E+00
   1   14   14     1    14    5.0129E+05 -3.4351E+04   5.3564E+05  0.000E+00  0.000E+00  0.000E+00  4.24451E+01  3.883E-01  2.000E+01  2.000E+04 -1.718E+00
   1   13   15     1    15    5.3564E+05 -3.6481E+04   5.7212E+05  0.000E+00  0.000E+00  0.000E+00  4.19835E+01  4.040E-01  2.000E+01  2.000E+04 -1.824E+00
   1   12   16     1    16    5.7212E+05 -4.2454E+04   6.1457E+05  0.000E+00  0.000E+00  0.000E+00  4.15233E+01  4.210E-01  2.000E+01  2.000E+04 -2.123E+00
   1   12   17     1    17    6.1457E+05 -3.3499E+04   6.4807E+05  0.000E+00  0.000E+00  0.000E+00  4.10620E+01  4.370E-01  2.000E+01  2.000E+04 -1.675E+00
   1   12   18     1    18    6.4807E+05 -3.2076E+04   6.8015E+05  0.000E+00  0.000E+00  0.000E+00  4.05982E+01  4.505E-01  2.000E+01  2.000E+04 -1.604E+00
   1   12   19     1    19    6.8015E+05 -3.6241E+04   7.1639E+05  0.000E+00  0.000E+00  0.000E+00  4.01347E+01  4.642E-01  2.000E+01  2.000E+04 -1.812E+00
   1   13   20     1    20    7.1639E+05 -2.6760E+04   7.4315E+05  0.000E+00  0.000E+00  0.000E+00  3.96699E+01  4.767E-01  2.000E+01  2.000E+04 -1.338E+00
   1   14   21     1    21    7.4315E+05 -1.9784E+04   7.6293E+05  0.000E+00  0.000E+00  0.000E+00  3.92017E+01  4.858E-01  2.000E+01  2.000E+04 -9.892E-01
   1   14   22     1    22    7.6293E+05 -1.8132E+03   7.6475E+05  0.000E+00  0.000E+00  0.000E+00  3.87286E+01  4.899E-01  2.000E+01  2.000E+04 -9.066E-02
   1    9   30     2     1    5.0000E+04 -2.6610E+04   7.6610E+04  0.000E+00  0.000E+00  0.000E+00  4.02585E+01  1.335E-01  2.000E+01  2.000E+04 -1.331E+00
   1    9   29     2     2    7.6610E+04 -2.9074E+04   1.0568E+05  0.000E+00  0.000E+00  0.000E+00  4.00411E+01  1.661E-01  2.000E+01  2.000E+04 -1.454E+00
   1    9   28     2     3    1.0568E+05 -3.3354E+04   1.3904E+05  0.000E+00  0.000E+00  0.000E+00  3.98232E+01  1.982E-01  2.000E+01  2.000E+04 -1.668E+00
   1    9   27     2     4    1.3904E+05 -4.7464E+04   1.8650E+05  0.000E+00  0.000E+00  0.000E+00  3.96102E+01  2.352E-01  2.000E+01  2.000E+04 -2.373E+00
   1   10   26     2     5    1.8650E+05 -3.3433E+04   2.1994E+05  0.000E+00  0.000E+00  0.000E+00  3.93938E+01  2.688E-01  2.000E+01  2.000E+04 -1.672E+00
   1   11   25     2     6    2.1994E+05 -2.5079E+04   2.4501E+05  0.000E+00  0.000E+00  0.000E+00  3.91663E+01  2.913E-01  2.000E+01  2.000E+04 -1.254E+00
   1   12   24     2     7    2.4501E+05 -1.8508E+04   2.6352E+05  0.000E+00  0.000E+00  0.000E+00  3.89324E+01  3.074E-01  2.000E+01  2.000E+04 -9.254E-01
   1   13   23     2     8    2.6352E+05 -1.3164E+04   2.7669E+05  0.000E+00  0.000E+00  0.000E+00  3.86938E+01  3.188E-01  2.000E+01  2.000E+04 -6.582E-01
   1   14   22     2     9    2.7669E+05 -7.3645E+03   2.8405E+05  0.000E+00  0.000E+00  0.000E+00  3.84510E+01  3.260E-01  2.000E+01  2.000E+04 -3.682E-01
   1   14   22     3     1    1.0488E+06 -1.5396E+04   1.0642E+06  0.000E+00  0.000E+00  0.000E+00  3.80494E+01  4.939E-01  2.000E+01  2.000E+04 -7.698E-01
   1   15   23     3     2    1.0642E+06 -2.3800E+04   1.0880E+06  0.000E+00  0.000E+00  0.000E+00  3.71660E+01  4.994E-01  2.000E+01  2.000E+04 -1.190E+00
   1   15   24     3     3    1.0880E+06 -1.9813E+04   1.1078E+06  0.000E+00  0.000E+00  0.000E+00  3.62832E+01  5.054E-01  2.000E+01  2.000E+04 -9.907E-01
   1   15   25     3     4    1.1078E+06 -1.9407E+04   1.1272E+06  0.000E+00  0.000E+00  0.000E+00  3.53997E+01  5.108E-01  2.000E+01  2.000E+04 -9.703E-01
   1   15   26     3     5    1.1272E+06 -2.2171E+04   1.1494E+06  0.000E+00  0.000E+00  0.000E+00  3.45165E+01  5.165E-01  2.000E+01  2.000E+04 -1.109E+00
   1   16   27     3     6    1.1494E+06 -2.9366E+04   1.1787E+06  0.000E+00  0.000E+00  0.000E+00  3.36346E+01  5.235E-01  2.000E+01  2.000E+04 -1.468E+00
   1   17   28     3     7    1.1787E+06 -3.6430E+04   1.2152E+06  0.000E+00  0.000E+00  0.000E+00  3.27545E+01  5.323E-01  2.000E+01  2.000E+04 -1.821E+00
   1   18   29     3     8    1.2152E+06 -4.7418E+04   1.2626E+06  0.000E+00  0.000E+00  0.000E+00  3.18767E+01  5.434E-01  2.000E+01  2.000E+04 -2.371E+00
   1   18   30     3     9    1.2626E+06 -4.3822E+04   1.3064E+06  0.000E+00  0.000E+00  0.000E+00  3.09998E+01  5.553E-01  2.000E+01  2.000E+04 -2.191E+00



1
              HEAD IN LAYER   1 AT END OF TIME STEP   1 IN STRESS PERIOD    4
  ---------------------------------------------------------------------------

          1      2      3      4      5      6      7      8      9     10
         11     12     13     14     15     16     17     18     19     20
         21     22     23     24     25     26     27     28     29     30
 .........................................................................
   1  ****** ****** ****** ****** ****** ****** ****** ****** ****** ******
      ****** ****** ****** ****** ****** ****** ****** ****** ****** ******
      ****** ****** ****** ****** ****** ****** ****** ****** ****** ******
   2  ****** ****** ****** ****** ****** ****** ****** ****** ****** ******
      ****** ****** ****** ****** ****** ****** ****** ****** ****** ******
      ****** ****** ****** ****** ****** ****** ****** ****** ****** ******
   3  ****** ****** ****** ****** ****** ****** ****** ****** ****** ******
      ****** ****** ****** ****** ****** ****** ****** ****** ****** ******
      ****** ****** ****** ****** ****** ****** ****** ****** ****** ******
   4  ****** ****** ****** ****** ****** ****** ****** ****** ****** ******
      ****** ****** ****** ****** ****** ****** ****** ****** ****** ******
      ****** ****** ****** ****** ****** ****** ****** ****** ****** ******
   5  ****** ****** ****** ****** ****** ****** ****** ****** ****** ******
      ****** ****** ****** ****** ****** ****** ****** ****** ****** ******
      ****** ****** ****** ****** ****** ****** ****** ****** ****** ******
   6  ****** ****** ****** ****** ****** ****** ****** ****** ****** ******
      ****** ****** ****** ****** ****** ****** ****** ****** ****** ******
      ****** ****** ****** ****** ****** ****** ****** ****** ****** ******
   7  ****** ****** ****** ****** ****** ****** ****** ****** ****** ******
      ****** ****** ****** ****** ****** ****** ****** ****** ****** ******
      ****** ****** ****** ****** ****** ****** ****** ****** ****** ******
   8  ****** ****** ****** ****** ****** ****** ****** ****** ****** ******
      ****** ****** ****** ****** ****** ****** ****** ****** ****** ******
      ****** ****** ****** ****** ****** ****** ****** ****** ****** ******
   9  ****** ****** ****** ****** ****** ****** ****** ****** ****** ******
      ****** ****** ****** ****** ****** ****** ****** ****** ****** ******
      ****** ****** ****** ****** ****** ****** ****** ****** ****** ******
  10  ****** ****** ****** ****** ****** ****** ****** ****** ****** ******
      ****** ****** ****** ****** ****** ****** ****** ****** ****** ******
      ****** ****** ****** ****** ****** ****** ****** ****** ****** ******
  11  ****** ****** ****** ****** ****** ****** ****** ****** ****** ******
      ****** ****** ****** ****** ****** ****** ****** ****** ****** ******
      ****** ****** ****** ****** ****** ****** ****** ****** ****** ******
  12  ****** ****** ****** ****** ****** ****** ****** ****** ****** ******
      ****** ****** ****** ****** ****** ****** ****** ****** ****** ******
      ****** ****** ****** ****** ****** ****** ****** ****** ****** ******
  13  ****** ****** ****** ****** ****** ****** ****** ****** ****** ******
      ****** ****** ****** ****** ****** ****** ****** ****** ****** ******
      ****** ****** ****** ****** ****** ****** ****** ****** ****** ******
  14  ****** ****** ****** ****** ****** ****** ****** ****** ****** ******
      ****** ****** ****** ****** ****** ****** ****** ****** ****** ******
      ****** ****** ****** ****** ****** ****** ****** ****** ****** ******
  15  ****** ****** ****** ****** ****** ****** ****** ****** ****** ******
      ****** ****** ****** ****** ****** ****** ****** ****** ****** ******
      ****** ****** ****** ****** ****** ****** ****** ****** ****** ******
  16  ****** ****** ****** ****** ****** ****** ****** ****** ****** ******
      ****** ****** ****** ****** ****** ****** ****** ****** ****** ******
      ****** ****** ****** ****** ****** ****** ****** ****** ****** ******
  17  ****** ****** ****** ****** ****** ****** ****** ****** ****** ******
      ****** ****** ****** ****** ****** ****** ****** ****** ****** ******
      ****** ****** ****** ****** ****** ****** ****** ****** ****** ******
  18  ****** ****** ****** ****** ****** ****** ****** ****** ****** ******
      ****** ****** ****** ****** ****** ****** ****** ****** ****** ******
      ****** ****** ****** ****** ****** ****** ****** ****** ****** ******
  19  ****** ****** ****** ****** ****** ****** ****** ****** ****** ******
      ****** ****** ****** ****** ****** ****** ****** ****** ****** ******
      ****** ****** ****** ****** ****** ****** ****** ****** ****** ******
  20  ****** ****** ****** ****** ****** ****** ****** ****** ****** ******
      ****** ****** ****** ****** ****** ****** ****** ****** ****** ******
      ****** ****** ****** ****** ****** ****** ****** ****** ****** ******
  21  ****** ****** ****** ****** ****** ****** ****** ****** ****** ******
      ****** ****** ****** ****** ****** ****** ****** ****** ****** ******
      ****** ****** ****** ****** ****** ****** ****** ****** ****** ******
  22  ****** ****** ****** ****** ****** ****** ****** ****** ****** ******
      ****** ****** ****** ****** ****** ****** ****** ****** ****** ******
      ****** ****** ****** ****** ****** ****** ****** ****** ****** ******
  23  ****** ****** ****** ****** ****** ****** ****** ****** ****** ******
      ****** ****** ****** ****** ****** ****** ****** ****** ****** ******
      ****** ****** ****** ****** ****** ****** ****** ****** ****** ******
  24  ****** ****** ****** ****** ****** ****** ****** ****** ****** ******
      ****** ****** ****** ****** ****** ****** ****** ****** ****** ******
      ****** ****** ****** ****** ****** ****** ****** ****** ****** ******
  25  ****** ****** ****** ****** ****** ****** ****** ****** ****** ******
      ****** ****** ****** ****** ****** ****** ****** ****** ****** ******
      ****** ****** ****** ****** ****** ****** ****** ****** ****** ******

 HEAD WILL BE SAVED ON UNIT   51 AT END OF TIME STEP    1, STRESS PERIOD    4
1
  VOLUMETRIC BUDGET FOR ENTIRE MODEL AT END OF TIME STEP    1, STRESS PERIOD   4
  ------------------------------------------------------------------------------

     CUMULATIVE VOLUMES      L**3       RATES FOR THIS TIME STEP      L**3/T
     ------------------                 ------------------------

           IN:                                      IN:
           ---                                      ---
             STORAGE =    20322663.8326               STORAGE =           0.0000
       CONSTANT HEAD =   436249805.0399         CONSTANT HEAD =     1209966.5255
               WELLS =           0.0000                 WELLS =           0.0000
            RECHARGE =     8804400.0000              RECHARGE =       27600.0000
      STREAM LEAKAGE =           0.0000        STREAM LEAKAGE =           0.0000

            TOTAL IN =   465376868.8725              TOTAL IN =     1237566.5255

          OUT:                                     OUT:
          ----                                     ----
             STORAGE =      105307.5834               STORAGE =        1149.1730
       CONSTANT HEAD =           0.0000         CONSTANT HEAD =           0.0000
               WELLS =    29655045.5000                 WELLS =       80000.0000
            RECHARGE =           0.0000              RECHARGE =           0.0000
      STREAM LEAKAGE =   435616521.3978        STREAM LEAKAGE =     1156417.3321

           TOTAL OUT =   465376874.4812             TOTAL OUT =     1237566.5051

            IN - OUT =          -5.6087              IN - OUT =       2.0388E-02

 PERCENT DISCREPANCY =          -0.00     PERCENT DISCREPANCY =           0.00






         TIME SUMMARY AT END OF TIME STEP    1 IN STRESS PERIOD    4
                    SECONDS     MINUTES      HOURS       DAYS        YEARS
                    -----------------------------------------------------------
   TIME STEP LENGTH 7.86240E+06 1.31040E+05  2184.0      91.000     0.24914    
 STRESS PERIOD TIME 7.86240E+06 1.31040E+05  2184.0      91.000     0.24914    
         TOTAL TIME 3.15360E+07 5.25600E+05  8760.0      365.00     0.99932    
1
1
                            STRESS PERIOD NO.    5, LENGTH =   92.00000    
                            -----------------------------------------------

                              NUMBER OF TIME STEPS =     1

                               MULTIPLIER FOR DELT =     1.500

                            INITIAL TIME STEP SIZE =   92.00000    

 WELL NO.  LAYER   ROW   COL   STRESS RATE         
 --------------------------------------------------
      1      1      5      8     -0.5000E+05
      2      1      3      6     -0.3000E+05

      2 WELLS

                 RECHARGE =  5.000000E-04

 REUSING STREAM SEGMENT DATA FROM LAST STRESS PERIOD
 
 SOLVING FOR HEAD 


     5 CALLS TO PCG ROUTINE FOR TIME STEP   1 IN STRESS PERIOD    5
    20 TOTAL ITERATIONS

 OUTPUT CONTROL FOR STRESS PERIOD    5   TIME STEP    1
    SAVE BUDGET
    SAVE HEAD FOR ALL LAYERS
    PRINT HEAD FOR ALL LAYERS
 UBDSV2 SAVING "STREAMFLOW OUT  " ON UNIT  50 AT TIME STEP  1, STRESS PERIOD   5



 STREAM LISTING     PERIOD      5   STEP        1

 LAYER ROW COL. STREAM  RCH.  FLOW INTO     FLOW TO   FLOW OUT OF   OVRLND.     DIRECT     STREAM       STREAM     STREAM     STREAM   STREAMBED  STREAMBED
                SEG.NO.  NO.  STRM. RCH.    AQUIFER    STRM. RCH.    RUNOFF     PRECIP       ET          HEAD       DEPTH      WIDTH   CONDCTNC.   GRADIENT

   1   13    1     1     1    1.0000E+05 -2.5974E+04   1.2597E+05  0.000E+00  0.000E+00  0.000E+00  4.84170E+01  1.556E-01  2.000E+01  2.000E+04 -1.299E+00
   1   13    2     1     2    1.2597E+05 -3.5154E+04   1.6113E+05  0.000E+00  0.000E+00  0.000E+00  4.79638E+01  1.797E-01  2.000E+01  2.000E+04 -1.758E+00
   1   14    3     1     3    1.6113E+05 -3.1276E+04   1.9240E+05  0.000E+00  0.000E+00  0.000E+00  4.75104E+01  2.036E-01  2.000E+01  2.000E+04 -1.564E+00
   1   15    4     1     4    1.9240E+05 -3.0978E+04   2.2338E+05  0.000E+00  0.000E+00  0.000E+00  4.70539E+01  2.244E-01  2.000E+01  2.000E+04 -1.549E+00
   1   16    5     1     5    2.2338E+05 -3.3036E+04   2.5642E+05  0.000E+00  0.000E+00  0.000E+00  4.65968E+01  2.445E-01  2.000E+01  2.000E+04 -1.652E+00
   1   16    6     1     6    2.5642E+05 -2.8718E+04   2.8514E+05  0.000E+00  0.000E+00  0.000E+00  4.61380E+01  2.630E-01  2.000E+01  2.000E+04 -1.436E+00
   1   16    7     1     7    2.8514E+05 -2.8495E+04   3.1363E+05  0.000E+00  0.000E+00  0.000E+00  4.56770E+01  2.793E-01  2.000E+01  2.000E+04 -1.425E+00
   1   16    8     1     8    3.1363E+05 -2.8679E+04   3.4231E+05  0.000E+00  0.000E+00  0.000E+00  4.52155E+01  2.950E-01  2.000E+01  2.000E+04 -1.434E+00
   1   16    9     1     9    3.4231E+05 -2.8804E+04   3.7111E+05  0.000E+00  0.000E+00  0.000E+00  4.47534E+01  3.103E-01  2.000E+01  2.000E+04 -1.440E+00
   1   16   10     1    10    3.7111E+05 -2.8918E+04   4.0003E+05  0.000E+00  0.000E+00  0.000E+00  4.42910E+01  3.251E-01  2.000E+01  2.000E+04 -1.446E+00
   1   16   11     1    11    4.0003E+05 -2.9647E+04   4.2968E+05  0.000E+00  0.000E+00  0.000E+00  4.38283E+01  3.397E-01  2.000E+01  2.000E+04 -1.482E+00
   1   16   12     1    12    4.2968E+05 -3.5307E+04   4.6499E+05  0.000E+00  0.000E+00  0.000E+00  4.33668E+01  3.554E-01  2.000E+01  2.000E+04 -1.765E+00
   1   15   13     1    13    4.6499E+05 -3.3704E+04   4.9869E+05  0.000E+00  0.000E+00  0.000E+00  4.29057E+01  3.716E-01  2.000E+01  2.000E+04 -1.685E+00
   1   14   14     1    14    4.9869E+05 -3.4115E+04   5.3281E+05  0.000E+00  0.000E+00  0.000E+00  4.24439E+01  3.871E-01  2.000E+01  2.000E+04 -1.706E+00
   1   13   15     1    15    5.3281E+05 -3.6247E+04   5.6905E+05  0.000E+00  0.000E+00  0.000E+00  4.19822E+01  4.027E-01  2.000E+01  2.000E+04 -1.812E+00
   1   12   16     1    16    5.6905E+05 -4.2229E+04   6.1128E+05  0.000E+00  0.000E+00  0.000E+00  4.15219E+01  4.197E-01  2.000E+01  2.000E+04 -2.111E+00
   1   12   17     1    17    6.1128E+05 -3.3317E+04   6.4460E+05  0.000E+00  0.000E+00  0.000E+00  4.10606E+01  4.356E-01  2.000E+01  2.000E+04 -1.666E+00
   1   12   18     1    18    6.4460E+05 -3.1902E+04   6.7650E+05  0.000E+00  0.000E+00  0.000E+00  4.05967E+01  4.490E-01  2.000E+01  2.000E+04 -1.595E+00
   1   12   19     1    19    6.7650E+05 -3.6050E+04   7.1255E+05  0.000E+00  0.000E+00  0.000E+00  4.01332E+01  4.627E-01  2.000E+01  2.000E+04 -1.803E+00
   1   13   20     1    20    7.1255E+05 -2.6580E+04   7.3913E+05  0.000E+00  0.000E+00  0.000E+00  3.96683E+01  4.751E-01  2.000E+01  2.000E+04 -1.329E+00
   1   14   21     1    21    7.3913E+05 -1.9629E+04   7.5876E+05  0.000E+00  0.000E+00  0.000E+00  3.92001E+01  4.842E-01  2.000E+01  2.000E+04 -9.814E-01
   1   14   22     1    22    7.5876E+05 -1.7581E+03   7.6052E+05  0.000E+00  0.000E+00  0.000E+00  3.87269E+01  4.883E-01  2.000E+01  2.000E+04 -8.790E-02
   1    9   30     2     1    5.0000E+04 -2.6469E+04   7.6469E+04  0.000E+00  0.000E+00  0.000E+00  4.02584E+01  1.334E-01  2.000E+01  2.000E+04 -1.323E+00
   1    9   29     2     2    7.6469E+04 -2.8933E+04   1.0540E+05  0.000E+00  0.000E+00  0.000E+00  4.00409E+01  1.659E-01  2.000E+01  2.000E+04 -1.447E+00
   1    9   28     2     3    1.0540E+05 -3.3209E+04   1.3861E+05  0.000E+00  0.000E+00  0.000E+00  3.98229E+01  1.979E-01  2.000E+01  2.000E+04 -1.660E+00
   1    9   27     2     4    1.3861E+05 -4.7286E+04   1.8590E+05  0.000E+00  0.000E+00  0.000E+00  3.96098E+01  2.348E-01  2.000E+01  2.000E+04 -2.364E+00
   1   10   26     2     5    1.8590E+05 -3.3249E+04   2.1914E+05  0.000E+00  0.000E+00  0.000E+00  3.93932E+01  2.682E-01  2.000E+01  2.000E+04 -1.662E+00
   1   11   25     2     6    2.1914E+05 -2.4901E+04   2.4405E+05  0.000E+00  0.000E+00  0.000E+00  3.91657E+01  2.907E-01  2.000E+01  2.000E+04 -1.245E+00
   1   12   24     2     7    2.4405E+05 -1.8348E+04   2.6239E+05  0.000E+00  0.000E+00  0.000E+00  3.89317E+01  3.067E-01  2.000E+01  2.000E+04 -9.174E-01
   1   13   23     2     8    2.6239E+05 -1.3034E+04   2.7543E+05  0.000E+00  0.000E+00  0.000E+00  3.86929E+01  3.179E-01  2.000E+01  2.000E+04 -6.517E-01
   1   14   22     2     9    2.7543E+05 -7.2950E+03   2.8272E+05  0.000E+00  0.000E+00  0.000E+00  3.84501E+01  3.251E-01  2.000E+01  2.000E+04 -3.648E-01
   1   14   22     3     1    1.0432E+06 -1.5340E+04   1.0586E+06  0.000E+00  0.000E+00  0.000E+00  3.80479E+01  4.923E-01  2.000E+01  2.000E+04 -7.670E-01
   1   15   23     3     2    1.0586E+06 -2.3655E+04   1.0822E+06  0.000E+00  0.000E+00  0.000E+00  3.71644E+01  4.978E-01  2.000E+01  2.000E+04 -1.183E+00
   1   15   24     3     3    1.0822E+06 -1.9693E+04   1.1019E+06  0.000E+00  0.000E+00  0.000E+00  3.62816E+01  5.038E-01  2.000E+01  2.000E+04 -9.846E-01
   1   15   25     3     4    1.1019E+06 -1.9286E+04   1.1212E+06  0.000E+00  0.000E+00  0.000E+00  3.53981E+01  5.092E-01  2.000E+01  2.000E+04 -9.643E-01
   1   15   26     3     5    1.1212E+06 -2.2030E+04   1.1432E+06  0.000E+00  0.000E+00  0.000E+00  3.45148E+01  5.148E-01  2.000E+01  2.000E+04 -1.102E+00
   1   16   27     3     6    1.1432E+06 -2.9197E+04   1.1724E+06  0.000E+00  0.000E+00  0.000E+00  3.36329E+01  5.218E-01  2.000E+01  2.000E+04 -1.460E+00
   1   17   28     3     7    1.1724E+06 -3.6257E+04   1.2087E+06  0.000E+00  0.000E+00  0.000E+00  3.27528E+01  5.306E-01  2.000E+01  2.000E+04 -1.813E+00
   1   18   29     3     8    1.2087E+06 -4.7256E+04   1.2560E+06  0.000E+00  0.000E+00  0.000E+00  3.18750E+01  5.417E-01  2.000E+01  2.000E+04 -2.363E+00
   1   18   30     3     9    1.2560E+06 -4.3687E+04   1.2996E+06  0.000E+00  0.000E+00  0.000E+00  3.09980E+01  5.536E-01  2.000E+01  2.000E+04 -2.184E+00



1
              HEAD IN LAYER   1 AT END OF TIME STEP   1 IN STRESS PERIOD    5
  ---------------------------------------------------------------------------

          1      2      3      4      5      6      7      8      9     10
         11     12     13     14     15     16     17     18     19     20
         21     22     23     24     25     26     27     28     29     30
 .........................................................................
   1  ****** ****** ****** ****** ****** ****** ****** ****** ****** ******
      ****** ****** ****** ****** ****** ****** ****** ****** ****** ******
      ****** ****** ****** ****** ****** ****** ****** ****** ****** ******
   2  ****** ****** ****** ****** ****** ****** ****** ****** ****** ******
      ****** ****** ****** ****** ****** ****** ****** ****** ****** ******
      ****** ****** ****** ****** ****** ****** ****** ****** ****** ******
   3  ****** ****** ****** ****** ****** ****** ****** ****** ****** ******
      ****** ****** ****** ****** ****** ****** ****** ****** ****** ******
      ****** ****** ****** ****** ****** ****** ****** ****** ****** ******
   4  ****** ****** ****** ****** ****** ****** ****** ****** ****** ******
      ****** ****** ****** ****** ****** ****** ****** ****** ****** ******
      ****** ****** ****** ****** ****** ****** ****** ****** ****** ******
   5  ****** ****** ****** ****** ****** ****** ****** ****** ****** ******
      ****** ****** ****** ****** ****** ****** ****** ****** ****** ******
      ****** ****** ****** ****** ****** ****** ****** ****** ****** ******
   6  ****** ****** ****** ****** ****** ****** ****** ****** ****** ******
      ****** ****** ****** ****** ****** ****** ****** ****** ****** ******
      ****** ****** ****** ****** ****** ****** ****** ****** ****** ******
   7  ****** ****** ****** ****** ****** ****** ****** ****** ****** ******
      ****** ****** ****** ****** ****** ****** ****** ****** ****** ******
      ****** ****** ****** ****** ****** ****** ****** ****** ****** ******
   8  ****** ****** ****** ****** ****** ****** ****** ****** ****** ******
      ****** ****** ****** ****** ****** ****** ****** ****** ****** ******
      ****** ****** ****** ****** ****** ****** ****** ****** ****** ******
   9  ****** ****** ****** ****** ****** ****** ****** ****** ****** ******
      ****** ****** ****** ****** ****** ****** ****** ****** ****** ******
      ****** ****** ****** ****** ****** ****** ****** ****** ****** ******
  10  ****** ****** ****** ****** ****** ****** ****** ****** ****** ******
      ****** ****** ****** ****** ****** ****** ****** ****** ****** ******
      ****** ****** ****** ****** ****** ****** ****** ****** ****** ******
  11  ****** ****** ****** ****** ****** ****** ****** ****** ****** ******
      ****** ****** ****** ****** ****** ****** ****** ****** ****** ******
      ****** ****** ****** ****** ****** ****** ****** ****** ****** ******
  12  ****** ****** ****** ****** ****** ****** ****** ****** ****** ******
      ****** ****** ****** ****** ****** ****** ****** ****** ****** ******
      ****** ****** ****** ****** ****** ****** ****** ****** ****** ******
  13  ****** ****** ****** ****** ****** ****** ****** ****** ****** ******
      ****** ****** ****** ****** ****** ****** ****** ****** ****** ******
      ****** ****** ****** ****** ****** ****** ****** ****** ****** ******
  14  ****** ****** ****** ****** ****** ****** ****** ****** ****** ******
      ****** ****** ****** ****** ****** ****** ****** ****** ****** ******
      ****** ****** ****** ****** ****** ****** ****** ****** ****** ******
  15  ****** ****** ****** ****** ****** ****** ****** ****** ****** ******
      ****** ****** ****** ****** ****** ****** ****** ****** ****** ******
      ****** ****** ****** ****** ****** ****** ****** ****** ****** ******
  16  ****** ****** ****** ****** ****** ****** ****** ****** ****** ******
      ****** ****** ****** ****** ****** ****** ****** ****** ****** ******
      ****** ****** ****** ****** ****** ****** ****** ****** ****** ******
  17  ****** ****** ****** ****** ****** ****** ****** ****** ****** ******
      ****** ****** ****** ****** ****** ****** ****** ****** ****** ******
      ****** ****** ****** ****** ****** ****** ****** ****** ****** ******
  18  ****** ****** ****** ****** ****** ****** ****** ****** ****** ******
      ****** ****** ****** ****** ****** ****** ****** ****** ****** ******
      ****** ****** ****** ****** ****** ****** ****** ****** ****** ******
  19  ****** ****** ****** ****** ****** ****** ****** ****** ****** ******
      ****** ****** ****** ****** ****** ****** ****** ****** ****** ******
      ****** ****** ****** ****** ****** ****** ****** ****** ****** ******
  20  ****** ****** ****** ****** ****** ****** ****** ****** ****** ******
      ****** ****** ****** ****** ****** ****** ****** ****** ****** ******
      ****** ****** ****** ****** ****** ****** ****** ****** ****** ******
  21  ****** ****** ****** ****** ****** ****** ****** ****** ****** ******
      ****** ****** ****** ****** ****** ****** ****** ****** ****** ******
      ****** ****** ****** ****** ****** ****** ****** ****** ****** ******
  22  ****** ****** ****** ****** ****** ****** ****** ****** ****** ******
      ****** ****** ****** ****** ****** ****** ****** ****** ****** ******
      ****** ****** ****** ****** ****** ****** ****** ****** ****** ******
  23  ****** ****** ****** ****** ****** ****** ****** ****** ****** ******
      ****** ****** ****** ****** ****** ****** ****** ****** ****** ******
      ****** ****** ****** ****** ****** ****** ****** ****** ****** ******
  24  ****** ****** ****** ****** ****** ****** ****** ****** ****** ******
      ****** ****** ****** ****** ****** ****** ****** ****** ****** ******
      ****** ****** ****** ****** ****** ****** ****** ****** ****** ******
  25  ****** ****** ****** ****** ****** ****** ****** ****** ****** ******
      ****** ****** ****** ****** ****** ****** ****** ****** ****** ******
      ****** ****** ****** ****** ****** ****** ****** ****** ****** ******

 HEAD WILL BE SAVED ON UNIT   51 AT END OF TIME STEP    1, STRESS PERIOD    5
1
  VOLUMETRIC BUDGET FOR ENTIRE MODEL AT END OF TIME STEP    1, STRESS PERIOD   5
  ------------------------------------------------------------------------------

     CUMULATIVE VOLUMES      L**3       RATES FOR THIS TIME STEP      L**3/T
     ------------------                 ------------------------

           IN:                                      IN:
           ---                                      ---
             STORAGE =    20376484.6115               STORAGE =         585.0085
       CONSTANT HEAD =   548053264.3432         CONSTANT HEAD =     1215254.9924
               WELLS =           0.0000                 WELLS =           0.0000
            RECHARGE =    10074000.0000              RECHARGE =       13800.0000
      STREAM LEAKAGE =           0.0000        STREAM LEAKAGE =           0.0000

            TOTAL IN =   578503748.9547              TOTAL IN =     1229640.0009

          OUT:                                     OUT:
          ----                                     ----
             STORAGE =      105307.5834               STORAGE =           0.0000
       CONSTANT HEAD =           0.0000         CONSTANT HEAD =           0.0000
               WELLS =    37015045.5000                 WELLS =       80000.0000
            RECHARGE =           0.0000              RECHARGE =           0.0000
      STREAM LEAKAGE =   541383403.3128        STREAM LEAKAGE =     1149640.0208

           TOTAL OUT =   578503756.3962             TOTAL OUT =     1229640.0208

            IN - OUT =          -7.4416              IN - OUT =      -1.9922E-02

 PERCENT DISCREPANCY =          -0.00     PERCENT DISCREPANCY =          -0.00






         TIME SUMMARY AT END OF TIME STEP    1 IN STRESS PERIOD    5
                    SECONDS     MINUTES      HOURS       DAYS        YEARS
                    -----------------------------------------------------------
   TIME STEP LENGTH 7.94880E+06 1.32480E+05  2208.0      92.000     0.25188    
 STRESS PERIOD TIME 7.94880E+06 1.32480E+05  2208.0      92.000     0.25188    
         TOTAL TIME 3.94848E+07 6.58080E+05  10968.      457.00      1.2512    
1
1
                            STRESS PERIOD NO.    6, LENGTH =   91.00000    
                            -----------------------------------------------

                              NUMBER OF TIME STEPS =     1

                               MULTIPLIER FOR DELT =     1.500

                            INITIAL TIME STEP SIZE =   91.00000    

 WELL NO.  LAYER   ROW   COL   STRESS RATE         
 --------------------------------------------------
      1      1      5      8     -0.5000E+05
      2      1      3      6     -0.3000E+05
      3      1      3      9      -5001.    

      3 WELLS

                 RECHARGE =  2.000000E-03

 REUSING STREAM SEGMENT DATA FROM LAST STRESS PERIOD
 
 SOLVING FOR HEAD 


     6 CALLS TO PCG ROUTINE FOR TIME STEP   1 IN STRESS PERIOD    6
    22 TOTAL ITERATIONS

 OUTPUT CONTROL FOR STRESS PERIOD    6   TIME STEP    1
    SAVE BUDGET
    SAVE HEAD FOR ALL LAYERS
    PRINT HEAD FOR ALL LAYERS
 UBDSV2 SAVING "STREAMFLOW OUT  " ON UNIT  50 AT TIME STEP  1, STRESS PERIOD   6



 STREAM LISTING     PERIOD      6   STEP        1

 LAYER ROW COL. STREAM  RCH.  FLOW INTO     FLOW TO   FLOW OUT OF   OVRLND.     DIRECT     STREAM       STREAM     STREAM     STREAM   STREAMBED  STREAMBED
                SEG.NO.  NO.  STRM. RCH.    AQUIFER    STRM. RCH.    RUNOFF     PRECIP       ET          HEAD       DEPTH      WIDTH   CONDCTNC.   GRADIENT

   1   13    1     1     1    1.0000E+05 -2.6580E+04   1.2658E+05  0.000E+00  0.000E+00  0.000E+00  4.84173E+01  1.559E-01  2.000E+01  2.000E+04 -1.329E+00
   1   13    2     1     2    1.2658E+05 -3.5871E+04   1.6245E+05  0.000E+00  0.000E+00  0.000E+00  4.79645E+01  1.804E-01  2.000E+01  2.000E+04 -1.794E+00
   1   14    3     1     3    1.6245E+05 -3.1992E+04   1.9444E+05  0.000E+00  0.000E+00  0.000E+00  4.75116E+01  2.048E-01  2.000E+01  2.000E+04 -1.600E+00
   1   15    4     1     4    1.9444E+05 -3.1676E+04   2.2612E+05  0.000E+00  0.000E+00  0.000E+00  4.70555E+01  2.259E-01  2.000E+01  2.000E+04 -1.584E+00
   1   16    5     1     5    2.2612E+05 -3.3678E+04   2.5980E+05  0.000E+00  0.000E+00  0.000E+00  4.65987E+01  2.464E-01  2.000E+01  2.000E+04 -1.684E+00
   1   16    6     1     6    2.5980E+05 -2.9271E+04   2.8907E+05  0.000E+00  0.000E+00  0.000E+00  4.61401E+01  2.651E-01  2.000E+01  2.000E+04 -1.464E+00
   1   16    7     1     7    2.8907E+05 -2.9040E+04   3.1811E+05  0.000E+00  0.000E+00  0.000E+00  4.56794E+01  2.816E-01  2.000E+01  2.000E+04 -1.452E+00
   1   16    8     1     8    3.1811E+05 -2.9224E+04   3.4733E+05  0.000E+00  0.000E+00  0.000E+00  4.52180E+01  2.976E-01  2.000E+01  2.000E+04 -1.461E+00
   1   16    9     1     9    3.4733E+05 -2.9349E+04   3.7668E+05  0.000E+00  0.000E+00  0.000E+00  4.47562E+01  3.130E-01  2.000E+01  2.000E+04 -1.467E+00
   1   16   10     1    10    3.7668E+05 -2.9463E+04   4.0614E+05  0.000E+00  0.000E+00  0.000E+00  4.42939E+01  3.280E-01  2.000E+01  2.000E+04 -1.473E+00
   1   16   11     1    11    4.0614E+05 -3.0202E+04   4.3634E+05  0.000E+00  0.000E+00  0.000E+00  4.38314E+01  3.428E-01  2.000E+01  2.000E+04 -1.510E+00
   1   16   12     1    12    4.3634E+05 -3.5961E+04   4.7231E+05  0.000E+00  0.000E+00  0.000E+00  4.33701E+01  3.587E-01  2.000E+01  2.000E+04 -1.798E+00
   1   15   13     1    13    4.7231E+05 -3.4415E+04   5.0672E+05  0.000E+00  0.000E+00  0.000E+00  4.29092E+01  3.751E-01  2.000E+01  2.000E+04 -1.721E+00
   1   14   14     1    14    5.0672E+05 -3.4842E+04   5.4156E+05  0.000E+00  0.000E+00  0.000E+00  4.24477E+01  3.908E-01  2.000E+01  2.000E+04 -1.742E+00
   1   13   15     1    15    5.4156E+05 -3.6962E+04   5.7852E+05  0.000E+00  0.000E+00  0.000E+00  4.19862E+01  4.067E-01  2.000E+01  2.000E+04 -1.848E+00
   1   12   16     1    16    5.7852E+05 -4.2912E+04   6.2144E+05  0.000E+00  0.000E+00  0.000E+00  4.15261E+01  4.238E-01  2.000E+01  2.000E+04 -2.146E+00
   1   12   17     1    17    6.2144E+05 -3.3879E+04   6.5532E+05  0.000E+00  0.000E+00  0.000E+00  4.10649E+01  4.399E-01  2.000E+01  2.000E+04 -1.694E+00
   1   12   18     1    18    6.5532E+05 -3.2445E+04   6.8776E+05  0.000E+00  0.000E+00  0.000E+00  4.06012E+01  4.535E-01  2.000E+01  2.000E+04 -1.622E+00
   1   12   19     1    19    6.8776E+05 -3.6649E+04   7.2441E+05  0.000E+00  0.000E+00  0.000E+00  4.01378E+01  4.673E-01  2.000E+01  2.000E+04 -1.832E+00
   1   13   20     1    20    7.2441E+05 -2.7148E+04   7.5156E+05  0.000E+00  0.000E+00  0.000E+00  3.96731E+01  4.799E-01  2.000E+01  2.000E+04 -1.357E+00
   1   14   21     1    21    7.5156E+05 -2.0122E+04   7.7168E+05  0.000E+00  0.000E+00  0.000E+00  3.92050E+01  4.891E-01  2.000E+01  2.000E+04 -1.006E+00
   1   14   22     1    22    7.7168E+05 -1.9328E+03   7.7361E+05  0.000E+00  0.000E+00  0.000E+00  3.87319E+01  4.933E-01  2.000E+01  2.000E+04 -9.664E-02
   1    9   30     2     1    5.0000E+04 -2.6913E+04   7.6913E+04  0.000E+00  0.000E+00  0.000E+00  4.02587E+01  1.337E-01  2.000E+01  2.000E+04 -1.346E+00
   1    9   29     2     2    7.6913E+04 -2.9376E+04   1.0629E+05  0.000E+00  0.000E+00  0.000E+00  4.00416E+01  1.666E-01  2.000E+01  2.000E+04 -1.469E+00
   1    9   28     2     3    1.0629E+05 -3.3667E+04   1.3996E+05  0.000E+00  0.000E+00  0.000E+00  3.98240E+01  1.990E-01  2.000E+01  2.000E+04 -1.683E+00
   1    9   27     2     4    1.3996E+05 -4.7846E+04   1.8780E+05  0.000E+00  0.000E+00  0.000E+00  3.96112E+01  2.362E-01  2.000E+01  2.000E+04 -2.392E+00
   1   10   26     2     5    1.8780E+05 -3.3829E+04   2.2163E+05  0.000E+00  0.000E+00  0.000E+00  3.93949E+01  2.699E-01  2.000E+01  2.000E+04 -1.691E+00
   1   11   25     2     6    2.2163E+05 -2.5460E+04   2.4709E+05  0.000E+00  0.000E+00  0.000E+00  3.91678E+01  2.928E-01  2.000E+01  2.000E+04 -1.273E+00
   1   12   24     2     7    2.4709E+05 -1.8848E+04   2.6594E+05  0.000E+00  0.000E+00  0.000E+00  3.89341E+01  3.091E-01  2.000E+01  2.000E+04 -9.424E-01
   1   13   23     2     8    2.6594E+05 -1.3440E+04   2.7938E+05  0.000E+00  0.000E+00  0.000E+00  3.86956E+01  3.206E-01  2.000E+01  2.000E+04 -6.720E-01
   1   14   22     2     9    2.7938E+05 -7.5131E+03   2.8689E+05  0.000E+00  0.000E+00  0.000E+00  3.84529E+01  3.279E-01  2.000E+01  2.000E+04 -3.757E-01
   1   14   22     3     1    1.0605E+06 -1.5517E+04   1.0760E+06  0.000E+00  0.000E+00  0.000E+00  3.80527E+01  4.972E-01  2.000E+01  2.000E+04 -7.758E-01
   1   15   23     3     2    1.0760E+06 -2.4116E+04   1.1001E+06  0.000E+00  0.000E+00  0.000E+00  3.71694E+01  5.027E-01  2.000E+01  2.000E+04 -1.206E+00
   1   15   24     3     3    1.1001E+06 -2.0074E+04   1.1202E+06  0.000E+00  0.000E+00  0.000E+00  3.62866E+01  5.088E-01  2.000E+01  2.000E+04 -1.004E+00
   1   15   25     3     4    1.1202E+06 -1.9665E+04   1.1399E+06  0.000E+00  0.000E+00  0.000E+00  3.54031E+01  5.142E-01  2.000E+01  2.000E+04 -9.833E-01
   1   15   26     3     5    1.1399E+06 -2.2471E+04   1.1623E+06  0.000E+00  0.000E+00  0.000E+00  3.45200E+01  5.200E-01  2.000E+01  2.000E+04 -1.124E+00
   1   16   27     3     6    1.1623E+06 -2.9729E+04   1.1921E+06  0.000E+00  0.000E+00  0.000E+00  3.36381E+01  5.270E-01  2.000E+01  2.000E+04 -1.486E+00
   1   17   28     3     7    1.1921E+06 -3.6802E+04   1.2289E+06  0.000E+00  0.000E+00  0.000E+00  3.27581E+01  5.359E-01  2.000E+01  2.000E+04 -1.840E+00
   1   18   29     3     8    1.2289E+06 -4.7768E+04   1.2766E+06  0.000E+00  0.000E+00  0.000E+00  3.18804E+01  5.470E-01  2.000E+01  2.000E+04 -2.388E+00
   1   18   30     3     9    1.2766E+06 -4.4114E+04   1.3208E+06  0.000E+00  0.000E+00  0.000E+00  3.10034E+01  5.590E-01  2.000E+01  2.000E+04 -2.206E+00



1
              HEAD IN LAYER   1 AT END OF TIME STEP   1 IN STRESS PERIOD    6
  ---------------------------------------------------------------------------

          1      2      3      4      5      6      7      8      9     10
         11     12     13     14     15     16     17     18     19     20
         21     22     23     24     25     26     27     28     29     30
 .........................................................................
   1  ****** ****** ****** ****** ****** ****** ****** ****** ****** ******
      ****** ****** ****** ****** ****** ****** ****** ****** ****** ******
      ****** ****** ****** ****** ****** ****** ****** ****** ****** ******
   2  ****** ****** ****** ****** ****** ****** ****** ****** ****** ******
      ****** ****** ****** ****** ****** ****** ****** ****** ****** ******
      ****** ****** ****** ****** ****** ****** ****** ****** ****** ******
   3  ****** ****** ****** ****** ****** ****** ****** ****** ****** ******
      ****** ****** ****** ****** ****** ****** ****** ****** ****** ******
      ****** ****** ****** ****** ****** ****** ****** ****** ****** ******
   4  ****** ****** ****** ****** ****** ****** ****** ****** ****** ******
      ****** ****** ****** ****** ****** ****** ****** ****** ****** ******
      ****** ****** ****** ****** ****** ****** ****** ****** ****** ******
   5  ****** ****** ****** ****** ****** ****** ****** ****** ****** ******
      ****** ****** ****** ****** ****** ****** ****** ****** ****** ******
      ****** ****** ****** ****** ****** ****** ****** ****** ****** ******
   6  ****** ****** ****** ****** ****** ****** ****** ****** ****** ******
      ****** ****** ****** ****** ****** ****** ****** ****** ****** ******
      ****** ****** ****** ****** ****** ****** ****** ****** ****** ******
   7  ****** ****** ****** ****** ****** ****** ****** ****** ****** ******
      ****** ****** ****** ****** ****** ****** ****** ****** ****** ******
      ****** ****** ****** ****** ****** ****** ****** ****** ****** ******
   8  ****** ****** ****** ****** ****** ****** ****** ****** ****** ******
      ****** ****** ****** ****** ****** ****** ****** ****** ****** ******
      ****** ****** ****** ****** ****** ****** ****** ****** ****** ******
   9  ****** ****** ****** ****** ****** ****** ****** ****** ****** ******
      ****** ****** ****** ****** ****** ****** ****** ****** ****** ******
      ****** ****** ****** ****** ****** ****** ****** ****** ****** ******
  10  ****** ****** ****** ****** ****** ****** ****** ****** ****** ******
      ****** ****** ****** ****** ****** ****** ****** ****** ****** ******
      ****** ****** ****** ****** ****** ****** ****** ****** ****** ******
  11  ****** ****** ****** ****** ****** ****** ****** ****** ****** ******
      ****** ****** ****** ****** ****** ****** ****** ****** ****** ******
      ****** ****** ****** ****** ****** ****** ****** ****** ****** ******
  12  ****** ****** ****** ****** ****** ****** ****** ****** ****** ******
      ****** ****** ****** ****** ****** ****** ****** ****** ****** ******
      ****** ****** ****** ****** ****** ****** ****** ****** ****** ******
  13  ****** ****** ****** ****** ****** ****** ****** ****** ****** ******
      ****** ****** ****** ****** ****** ****** ****** ****** ****** ******
      ****** ****** ****** ****** ****** ****** ****** ****** ****** ******
  14  ****** ****** ****** ****** ****** ****** ****** ****** ****** ******
      ****** ****** ****** ****** ****** ****** ****** ****** ****** ******
      ****** ****** ****** ****** ****** ****** ****** ****** ****** ******
  15  ****** ****** ****** ****** ****** ****** ****** ****** ****** ******
      ****** ****** ****** ****** ****** ****** ****** ****** ****** ******
      ****** ****** ****** ****** ****** ****** ****** ****** ****** ******
  16  ****** ****** ****** ****** ****** ****** ****** ****** ****** ******
      ****** ****** ****** ****** ****** ****** ****** ****** ****** ******
      ****** ****** ****** ****** ****** ****** ****** ****** ****** ******
  17  ****** ****** ****** ****** ****** ****** ****** ****** ****** ******
      ****** ****** ****** ****** ****** ****** ****** ****** ****** ******
      ****** ****** ****** ****** ****** ****** ****** ****** ****** ******
  18  ****** ****** ****** ****** ****** ****** ****** ****** ****** ******
      ****** ****** ****** ****** ****** ****** ****** ****** ****** ******
      ****** ****** ****** ****** ****** ****** ****** ****** ****** ******
  19  ****** ****** ****** ****** ****** ****** ****** ****** ****** ******
      ****** ****** ****** ****** ****** ****** ****** ****** ****** ******
      ****** ****** ****** ****** ****** ****** ****** ****** ****** ******
  20  ****** ****** ****** ****** ****** ****** ****** ****** ****** ******
      ****** ****** ****** ****** ****** ****** ****** ****** ****** ******
      ****** ****** ****** ****** ****** ****** ****** ****** ****** ******
  21  ****** ****** ****** ****** ****** ****** ****** ****** ****** ******
      ****** ****** ****** ****** ****** ****** ****** ****** ****** ******
      ****** ****** ****** ****** ****** ****** ****** ****** ****** ******
  22  ****** ****** ****** ****** ****** ****** ****** ****** ****** ******
      ****** ****** ****** ****** ****** ****** ****** ****** ****** ******
      ****** ****** ****** ****** ****** ****** ****** ****** ****** ******
  23  ****** ****** ****** ****** ****** ****** ****** ****** ****** ******
      ****** ****** ****** ****** ****** ****** ****** ****** ****** ******
      ****** ****** ****** ****** ****** ****** ****** ****** ****** ******
  24  ****** ****** ****** ****** ****** ****** ****** ****** ****** ******
      ****** ****** ****** ****** ****** ****** ****** ****** ****** ******
      ****** ****** ****** ****** ****** ****** ****** ****** ****** ******
  25  ****** ****** ****** ****** ****** ****** ****** ****** ****** ******
      ****** ****** ****** ****** ****** ****** ****** ****** ****** ******
      ****** ****** ****** ****** ****** ****** ****** ****** ****** ******

 HEAD WILL BE SAVED ON UNIT   51 AT END OF TIME STEP    1, STRESS PERIOD    6
1
  VOLUMETRIC BUDGET FOR ENTIRE MODEL AT END OF TIME STEP    1, STRESS PERIOD   6
  ------------------------------------------------------------------------------

     CUMULATIVE VOLUMES      L**3       RATES FOR THIS TIME STEP      L**3/T
     ------------------                 ------------------------

           IN:                                      IN:
           ---                                      ---
             STORAGE =    20378186.1468               STORAGE =          18.6982
       CONSTANT HEAD =   657459320.4474         CONSTANT HEAD =     1202264.3528
               WELLS =           0.0000                 WELLS =           0.0000
            RECHARGE =    15097200.0000              RECHARGE =       55200.0000
      STREAM LEAKAGE =           0.0000        STREAM LEAKAGE =           0.0000

            TOTAL IN =   692934706.5942              TOTAL IN =     1257483.0510

          OUT:                                     OUT:
          ----                                     ----
             STORAGE =      261837.8720               STORAGE =        1720.1131
       CONSTANT HEAD =           0.0000         CONSTANT HEAD =           0.0000
               WELLS =    44750091.0000                 WELLS =       85000.5000
            RECHARGE =           0.0000              RECHARGE =           0.0000
      STREAM LEAKAGE =   647922782.2607        STREAM LEAKAGE =     1170762.4060

           TOTAL OUT =   692934711.1327             TOTAL OUT =     1257483.0191

            IN - OUT =          -4.5385              IN - OUT =       3.1902E-02

 PERCENT DISCREPANCY =          -0.00     PERCENT DISCREPANCY =           0.00






         TIME SUMMARY AT END OF TIME STEP    1 IN STRESS PERIOD    6
                    SECONDS     MINUTES      HOURS       DAYS        YEARS
                    -----------------------------------------------------------
   TIME STEP LENGTH 7.86240E+06 1.31040E+05  2184.0      91.000     0.24914    
 STRESS PERIOD TIME 7.86240E+06 1.31040E+05  2184.0      91.000     0.24914    
         TOTAL TIME 4.73472E+07 7.89120E+05  13152.      548.00      1.5003    
1
1
                            STRESS PERIOD NO.    7, LENGTH =   91.00000    
                            -----------------------------------------------

                              NUMBER OF TIME STEPS =     1

                               MULTIPLIER FOR DELT =     1.500

                            INITIAL TIME STEP SIZE =   91.00000    

 WELL NO.  LAYER   ROW   COL   STRESS RATE         
 --------------------------------------------------
      1      1      5      8     -0.5000E+05
      2      1      3      6     -0.3000E+05

      2 WELLS

                 RECHARGE =   0.00000    

 REUSING STREAM SEGMENT DATA FROM LAST STRESS PERIOD
 
 SOLVING FOR HEAD 


     6 CALLS TO PCG ROUTINE FOR TIME STEP   1 IN STRESS PERIOD    7
    22 TOTAL ITERATIONS

 OUTPUT CONTROL FOR STRESS PERIOD    7   TIME STEP    1
    SAVE BUDGET
    SAVE HEAD FOR ALL LAYERS
    PRINT HEAD FOR ALL LAYERS
 UBDSV2 SAVING "STREAMFLOW OUT  " ON UNIT  50 AT TIME STEP  1, STRESS PERIOD   7



 STREAM LISTING     PERIOD      7   STEP        1

 LAYER ROW COL. STREAM  RCH.  FLOW INTO     FLOW TO   FLOW OUT OF   OVRLND.     DIRECT     STREAM       STREAM     STREAM     STREAM   STREAMBED  STREAMBED
                SEG.NO.  NO.  STRM. RCH.    AQUIFER    STRM. RCH.    RUNOFF     PRECIP       ET          HEAD       DEPTH      WIDTH   CONDCTNC.   GRADIENT

   1   13    1     1     1    1.0000E+05 -2.5774E+04   1.2577E+05  0.000E+00  0.000E+00  0.000E+00  4.84169E+01  1.556E-01  2.000E+01  2.000E+04 -1.289E+00
   1   13    2     1     2    1.2577E+05 -3.4915E+04   1.6069E+05  0.000E+00  0.000E+00  0.000E+00  4.79635E+01  1.795E-01  2.000E+01  2.000E+04 -1.746E+00
   1   14    3     1     3    1.6069E+05 -3.1041E+04   1.9173E+05  0.000E+00  0.000E+00  0.000E+00  4.75100E+01  2.032E-01  2.000E+01  2.000E+04 -1.552E+00
   1   15    4     1     4    1.9173E+05 -3.0752E+04   2.2248E+05  0.000E+00  0.000E+00  0.000E+00  4.70534E+01  2.239E-01  2.000E+01  2.000E+04 -1.538E+00
   1   16    5     1     5    2.2248E+05 -3.2832E+04   2.5531E+05  0.000E+00  0.000E+00  0.000E+00  4.65962E+01  2.439E-01  2.000E+01  2.000E+04 -1.642E+00
   1   16    6     1     6    2.5531E+05 -2.8541E+04   2.8386E+05  0.000E+00  0.000E+00  0.000E+00  4.61373E+01  2.623E-01  2.000E+01  2.000E+04 -1.427E+00
   1   16    7     1     7    2.8386E+05 -2.8319E+04   3.1218E+05  0.000E+00  0.000E+00  0.000E+00  4.56763E+01  2.785E-01  2.000E+01  2.000E+04 -1.416E+00
   1   16    8     1     8    3.1218E+05 -2.8502E+04   3.4068E+05  0.000E+00  0.000E+00  0.000E+00  4.52146E+01  2.942E-01  2.000E+01  2.000E+04 -1.425E+00
   1   16    9     1     9    3.4068E+05 -2.8628E+04   3.6931E+05  0.000E+00  0.000E+00  0.000E+00  4.47525E+01  3.094E-01  2.000E+01  2.000E+04 -1.431E+00
   1   16   10     1    10    3.6931E+05 -2.8742E+04   3.9805E+05  0.000E+00  0.000E+00  0.000E+00  4.42900E+01  3.241E-01  2.000E+01  2.000E+04 -1.437E+00
   1   16   11     1    11    3.9805E+05 -2.9469E+04   4.2752E+05  0.000E+00  0.000E+00  0.000E+00  4.38273E+01  3.387E-01  2.000E+01  2.000E+04 -1.473E+00
   1   16   12     1    12    4.2752E+05 -3.5101E+04   4.6262E+05  0.000E+00  0.000E+00  0.000E+00  4.33657E+01  3.543E-01  2.000E+01  2.000E+04 -1.755E+00
   1   15   13     1    13    4.6262E+05 -3.3476E+04   4.9609E+05  0.000E+00  0.000E+00  0.000E+00  4.29045E+01  3.704E-01  2.000E+01  2.000E+04 -1.674E+00
   1   14   14     1    14    4.9609E+05 -3.3879E+04   5.2997E+05  0.000E+00  0.000E+00  0.000E+00  4.24427E+01  3.858E-01  2.000E+01  2.000E+04 -1.694E+00
   1   13   15     1    15    5.2997E+05 -3.6013E+04   5.6599E+05  0.000E+00  0.000E+00  0.000E+00  4.19810E+01  4.014E-01  2.000E+01  2.000E+04 -1.801E+00
   1   12   16     1    16    5.6599E+05 -4.2003E+04   6.0799E+05  0.000E+00  0.000E+00  0.000E+00  4.15206E+01  4.183E-01  2.000E+01  2.000E+04 -2.100E+00
   1   12   17     1    17    6.0799E+05 -3.3135E+04   6.4112E+05  0.000E+00  0.000E+00  0.000E+00  4.10592E+01  4.342E-01  2.000E+01  2.000E+04 -1.657E+00
   1   12   18     1    18    6.4112E+05 -3.1728E+04   6.7285E+05  0.000E+00  0.000E+00  0.000E+00  4.05953E+01  4.476E-01  2.000E+01  2.000E+04 -1.586E+00
   1   12   19     1    19    6.7285E+05 -3.5860E+04   7.0871E+05  0.000E+00  0.000E+00  0.000E+00  4.01317E+01  4.612E-01  2.000E+01  2.000E+04 -1.793E+00
   1   13   20     1    20    7.0871E+05 -2.6401E+04   7.3511E+05  0.000E+00  0.000E+00  0.000E+00  3.96668E+01  4.736E-01  2.000E+01  2.000E+04 -1.320E+00
   1   14   21     1    21    7.3511E+05 -1.9475E+04   7.5459E+05  0.000E+00  0.000E+00  0.000E+00  3.91985E+01  4.826E-01  2.000E+01  2.000E+04 -9.737E-01
   1   14   22     1    22    7.5459E+05 -1.7035E+03   7.5629E+05  0.000E+00  0.000E+00  0.000E+00  3.87253E+01  4.867E-01  2.000E+01  2.000E+04 -8.518E-02
   1    9   30     2     1    5.0000E+04 -2.6328E+04   7.6328E+04  0.000E+00  0.000E+00  0.000E+00  4.02583E+01  1.333E-01  2.000E+01  2.000E+04 -1.316E+00
   1    9   29     2     2    7.6328E+04 -2.8792E+04   1.0512E+05  0.000E+00  0.000E+00  0.000E+00  4.00407E+01  1.657E-01  2.000E+01  2.000E+04 -1.440E+00
   1    9   28     2     3    1.0512E+05 -3.3064E+04   1.3818E+05  0.000E+00  0.000E+00  0.000E+00  3.98225E+01  1.975E-01  2.000E+01  2.000E+04 -1.653E+00
   1    9   27     2     4    1.3818E+05 -4.7110E+04   1.8529E+05  0.000E+00  0.000E+00  0.000E+00  3.96093E+01  2.343E-01  2.000E+01  2.000E+04 -2.355E+00
   1   10   26     2     5    1.8529E+05 -3.3065E+04   2.1836E+05  0.000E+00  0.000E+00  0.000E+00  3.93926E+01  2.676E-01  2.000E+01  2.000E+04 -1.653E+00
   1   11   25     2     6    2.1836E+05 -2.4724E+04   2.4308E+05  0.000E+00  0.000E+00  0.000E+00  3.91650E+01  2.900E-01  2.000E+01  2.000E+04 -1.236E+00
   1   12   24     2     7    2.4308E+05 -1.8190E+04   2.6127E+05  0.000E+00  0.000E+00  0.000E+00  3.89309E+01  3.059E-01  2.000E+01  2.000E+04 -9.095E-01
   1   13   23     2     8    2.6127E+05 -1.2905E+04   2.7418E+05  0.000E+00  0.000E+00  0.000E+00  3.86921E+01  3.171E-01  2.000E+01  2.000E+04 -6.453E-01
   1   14   22     2     9    2.7418E+05 -7.2260E+03   2.8141E+05  0.000E+00  0.000E+00  0.000E+00  3.84492E+01  3.242E-01  2.000E+01  2.000E+04 -3.613E-01
   1   14   22     3     1    1.0377E+06 -1.5284E+04   1.0530E+06  0.000E+00  0.000E+00  0.000E+00  3.80463E+01  4.907E-01  2.000E+01  2.000E+04 -7.642E-01
   1   15   23     3     2    1.0530E+06 -2.3512E+04   1.0765E+06  0.000E+00  0.000E+00  0.000E+00  3.71629E+01  4.962E-01  2.000E+01  2.000E+04 -1.176E+00
   1   15   24     3     3    1.0765E+06 -1.9573E+04   1.0961E+06  0.000E+00  0.000E+00  0.000E+00  3.62800E+01  5.022E-01  2.000E+01  2.000E+04 -9.787E-01
   1   15   25     3     4    1.0961E+06 -1.9167E+04   1.1152E+06  0.000E+00  0.000E+00  0.000E+00  3.53964E+01  5.075E-01  2.000E+01  2.000E+04 -9.584E-01
   1   15   26     3     5    1.1152E+06 -2.1891E+04   1.1371E+06  0.000E+00  0.000E+00  0.000E+00  3.45132E+01  5.132E-01  2.000E+01  2.000E+04 -1.095E+00
   1   16   27     3     6    1.1371E+06 -2.9029E+04   1.1662E+06  0.000E+00  0.000E+00  0.000E+00  3.36312E+01  5.201E-01  2.000E+01  2.000E+04 -1.451E+00
   1   17   28     3     7    1.1662E+06 -3.6085E+04   1.2022E+06  0.000E+00  0.000E+00  0.000E+00  3.27511E+01  5.289E-01  2.000E+01  2.000E+04 -1.804E+00
   1   18   29     3     8    1.2022E+06 -4.7095E+04   1.2493E+06  0.000E+00  0.000E+00  0.000E+00  3.18733E+01  5.399E-01  2.000E+01  2.000E+04 -2.355E+00
   1   18   30     3     9    1.2493E+06 -4.3552E+04   1.2929E+06  0.000E+00  0.000E+00  0.000E+00  3.09963E+01  5.518E-01  2.000E+01  2.000E+04 -2.178E+00



1
              HEAD IN LAYER   1 AT END OF TIME STEP   1 IN STRESS PERIOD    7
  ---------------------------------------------------------------------------

          1      2      3      4      5      6      7      8      9     10
         11     12     13     14     15     16     17     18     19     20
         21     22     23     24     25     26     27     28     29     30
 .........................................................................
   1  ****** ****** ****** ****** ****** ****** ****** ****** ****** ******
      ****** ****** ****** ****** ****** ****** ****** ****** ****** ******
      ****** ****** ****** ****** ****** ****** ****** ****** ****** ******
   2  ****** ****** ****** ****** ****** ****** ****** ****** ****** ******
      ****** ****** ****** ****** ****** ****** ****** ****** ****** ******
      ****** ****** ****** ****** ****** ****** ****** ****** ****** ******
   3  ****** ****** ****** ****** ****** ****** ****** ****** ****** ******
      ****** ****** ****** ****** ****** ****** ****** ****** ****** ******
      ****** ****** ****** ****** ****** ****** ****** ****** ****** ******
   4  ****** ****** ****** ****** ****** ****** ****** ****** ****** ******
      ****** ****** ****** ****** ****** ****** ****** ****** ****** ******
      ****** ****** ****** ****** ****** ****** ****** ****** ****** ******
   5  ****** ****** ****** ****** ****** ****** ****** ****** ****** ******
      ****** ****** ****** ****** ****** ****** ****** ****** ****** ******
      ****** ****** ****** ****** ****** ****** ****** ****** ****** ******
   6  ****** ****** ****** ****** ****** ****** ****** ****** ****** ******
      ****** ****** ****** ****** ****** ****** ****** ****** ****** ******
      ****** ****** ****** ****** ****** ****** ****** ****** ****** ******
   7  ****** ****** ****** ****** ****** ****** ****** ****** ****** ******
      ****** ****** ****** ****** ****** ****** ****** ****** ****** ******
      ****** ****** ****** ****** ****** ****** ****** ****** ****** ******
   8  ****** ****** ****** ****** ****** ****** ****** ****** ****** ******
      ****** ****** ****** ****** ****** ****** ****** ****** ****** ******
      ****** ****** ****** ****** ****** ****** ****** ****** ****** ******
   9  ****** ****** ****** ****** ****** ****** ****** ****** ****** ******
      ****** ****** ****** ****** ****** ****** ****** ****** ****** ******
      ****** ****** ****** ****** ****** ****** ****** ****** ****** ******
  10  ****** ****** ****** ****** ****** ****** ****** ****** ****** ******
      ****** ****** ****** ****** ****** ****** ****** ****** ****** ******
      ****** ****** ****** ****** ****** ****** ****** ****** ****** ******
  11  ****** ****** ****** ****** ****** ****** ****** ****** ****** ******
      ****** ****** ****** ****** ****** ****** ****** ****** ****** ******
      ****** ****** ****** ****** ****** ****** ****** ****** ****** ******
  12  ****** ****** ****** ****** ****** ****** ****** ****** ****** ******
      ****** ****** ****** ****** ****** ****** ****** ****** ****** ******
      ****** ****** ****** ****** ****** ****** ****** ****** ****** ******
  13  ****** ****** ****** ****** ****** ****** ****** ****** ****** ******
      ****** ****** ****** ****** ****** ****** ****** ****** ****** ******
      ****** ****** ****** ****** ****** ****** ****** ****** ****** ******
  14  ****** ****** ****** ****** ****** ****** ****** ****** ****** ******
      ****** ****** ****** ****** ****** ****** ****** ****** ****** ******
      ****** ****** ****** ****** ****** ****** ****** ****** ****** ******
  15  ****** ****** ****** ****** ****** ****** ****** ****** ****** ******
      ****** ****** ****** ****** ****** ****** ****** ****** ****** ******
      ****** ****** ****** ****** ****** ****** ****** ****** ****** ******
  16  ****** ****** ****** ****** ****** ****** ****** ****** ****** ******
      ****** ****** ****** ****** ****** ****** ****** ****** ****** ******
      ****** ****** ****** ****** ****** ****** ****** ****** ****** ******
  17  ****** ****** ****** ****** ****** ****** ****** ****** ****** ******
      ****** ****** ****** ****** ****** ****** ****** ****** ****** ******
      ****** ****** ****** ****** ****** ****** ****** ****** ****** ******
  18  ****** ****** ****** ****** ****** ****** ****** ****** ****** ******
      ****** ****** ****** ****** ****** ****** ****** ****** ****** ******
      ****** ****** ****** ****** ****** ****** ****** ****** ****** ******
  19  ****** ****** ****** ****** ****** ****** ****** ****** ****** ******
      ****** ****** ****** ****** ****** ****** ****** ****** ****** ******
      ****** ****** ****** ****** ****** ****** ****** ****** ****** ******
  20  ****** ****** ****** ****** ****** ****** ****** ****** ****** ******
      ****** ****** ****** ****** ****** ****** ****** ****** ****** ******
      ****** ****** ****** ****** ****** ****** ****** ****** ****** ******
  21  ****** ****** ****** ****** ****** ****** ****** ****** ****** ******
      ****** ****** ****** ****** ****** ****** ****** ****** ****** ******
      ****** ****** ****** ****** ****** ****** ****** ****** ****** ******
  22  ****** ****** ****** ****** ****** ****** ****** ****** ****** ******
      ****** ****** ****** ****** ****** ****** ****** ****** ****** ******
      ****** ****** ****** ****** ****** ****** ****** ****** ****** ******
  23  ****** ****** ****** ****** ****** ****** ****** ****** ****** ******
      ****** ****** ****** ****** ****** ****** ****** ****** ****** ******
      ****** ****** ****** ****** ****** ****** ****** ****** ****** ******
  24  ****** ****** ****** ****** ****** ****** ****** ****** ****** ******
      ****** ****** ****** ****** ****** ****** ****** ****** ****** ******
      ****** ****** ****** ****** ****** ****** ****** ****** ****** ******
  25  ****** ****** ****** ****** ****** ****** ****** ****** ****** ******
      ****** ****** ****** ****** ****** ****** ****** ****** ****** ******
      ****** ****** ****** ****** ****** ****** ****** ****** ****** ******

 HEAD WILL BE SAVED ON UNIT   51 AT END OF TIME STEP    1, STRESS PERIOD    7
1
  VOLUMETRIC BUDGET FOR ENTIRE MODEL AT END OF TIME STEP    1, STRESS PERIOD   7
  ------------------------------------------------------------------------------

     CUMULATIVE VOLUMES      L**3       RATES FOR THIS TIME STEP      L**3/T
     ------------------                 ------------------------

           IN:                                      IN:
           ---                                      ---
             STORAGE =    20588281.3329               STORAGE =        2308.7383
       CONSTANT HEAD =   768532877.4931         CONSTANT HEAD =     1220588.5390
               WELLS =           0.0000                 WELLS =           0.0000
            RECHARGE =    15097200.0000              RECHARGE =           0.0000
      STREAM LEAKAGE =           0.0000        STREAM LEAKAGE =           0.0000

            TOTAL IN =   804218358.8260              TOTAL IN =     1222897.2773

          OUT:                                     OUT:
          ----                                     ----
             STORAGE =      262981.5682               STORAGE =          12.5681
       CONSTANT HEAD =           0.0000         CONSTANT HEAD =           0.0000
               WELLS =    52030091.0000                 WELLS =       80000.0000
            RECHARGE =           0.0000              RECHARGE =           0.0000
      STREAM LEAKAGE =   751925294.7692        STREAM LEAKAGE =     1142884.7528

           TOTAL OUT =   804218367.3374             TOTAL OUT =     1222897.3209

            IN - OUT =          -8.5114              IN - OUT =      -4.3658E-02

 PERCENT DISCREPANCY =          -0.00     PERCENT DISCREPANCY =          -0.00






         TIME SUMMARY AT END OF TIME STEP    1 IN STRESS PERIOD    7
                    SECONDS     MINUTES      HOURS       DAYS        YEARS
                    -----------------------------------------------------------
   TIME STEP LENGTH 7.86240E+06 1.31040E+05  2184.0      91.000     0.24914    
 STRESS PERIOD TIME 7.86240E+06 1.31040E+05  2184.0      91.000     0.24914    
         TOTAL TIME 5.52096E+07 9.20160E+05  15336.      639.00      1.7495    
1
1
                            STRESS PERIOD NO.    8, LENGTH =   91.00000    
                            -----------------------------------------------

                              NUMBER OF TIME STEPS =     1

                               MULTIPLIER FOR DELT =     1.500

                            INITIAL TIME STEP SIZE =   91.00000    

 WELL NO.  LAYER   ROW   COL   STRESS RATE         
 --------------------------------------------------
      1      1      5      8     -0.5000E+05
      2      1      3      6     -0.3000E+05
      3      1      3      9       0.000    

      3 WELLS

                 RECHARGE =  1.000000E-03

 REUSING STREAM SEGMENT DATA FROM LAST STRESS PERIOD
 
 SOLVING FOR HEAD 


     6 CALLS TO PCG ROUTINE FOR TIME STEP   1 IN STRESS PERIOD    8
    22 TOTAL ITERATIONS

 OUTPUT CONTROL FOR STRESS PERIOD    8   TIME STEP    1
    SAVE BUDGET
    SAVE HEAD FOR ALL LAYERS
    PRINT HEAD FOR ALL LAYERS
 UBDSV2 SAVING "STREAMFLOW OUT  " ON UNIT  50 AT TIME STEP  1, STRESS PERIOD   8



 STREAM LISTING     PERIOD      8   STEP        1

 LAYER ROW COL. STREAM  RCH.  FLOW INTO     FLOW TO   FLOW OUT OF   OVRLND.     DIRECT     STREAM       STREAM     STREAM     STREAM   STREAMBED  STREAMBED
                SEG.NO.  NO.  STRM. RCH.    AQUIFER    STRM. RCH.    RUNOFF     PRECIP       ET          HEAD       DEPTH      WIDTH   CONDCTNC.   GRADIENT

   1   13    1     1     1    1.0000E+05 -2.6172E+04   1.2617E+05  0.000E+00  0.000E+00  0.000E+00  4.84171E+01  1.557E-01  2.000E+01  2.000E+04 -1.309E+00
   1   13    2     1     2    1.2617E+05 -3.5390E+04   1.6156E+05  0.000E+00  0.000E+00  0.000E+00  4.79640E+01  1.799E-01  2.000E+01  2.000E+04 -1.769E+00
   1   14    3     1     3    1.6156E+05 -3.1508E+04   1.9307E+05  0.000E+00  0.000E+00  0.000E+00  4.75108E+01  2.040E-01  2.000E+01  2.000E+04 -1.575E+00
   1   15    4     1     4    1.9307E+05 -3.1203E+04   2.2427E+05  0.000E+00  0.000E+00  0.000E+00  4.70545E+01  2.249E-01  2.000E+01  2.000E+04 -1.560E+00
   1   16    5     1     5    2.2427E+05 -3.3240E+04   2.5751E+05  0.000E+00  0.000E+00  0.000E+00  4.65974E+01  2.451E-01  2.000E+01  2.000E+04 -1.662E+00
   1   16    6     1     6    2.5751E+05 -2.8895E+04   2.8641E+05  0.000E+00  0.000E+00  0.000E+00  4.61386E+01  2.636E-01  2.000E+01  2.000E+04 -1.445E+00
   1   16    7     1     7    2.8641E+05 -2.8670E+04   3.1508E+05  0.000E+00  0.000E+00  0.000E+00  4.56778E+01  2.801E-01  2.000E+01  2.000E+04 -1.434E+00
   1   16    8     1     8    3.1508E+05 -2.8854E+04   3.4393E+05  0.000E+00  0.000E+00  0.000E+00  4.52163E+01  2.958E-01  2.000E+01  2.000E+04 -1.443E+00
   1   16    9     1     9    3.4393E+05 -2.8979E+04   3.7291E+05  0.000E+00  0.000E+00  0.000E+00  4.47543E+01  3.111E-01  2.000E+01  2.000E+04 -1.449E+00
   1   16   10     1    10    3.7291E+05 -2.9093E+04   4.0200E+05  0.000E+00  0.000E+00  0.000E+00  4.42919E+01  3.260E-01  2.000E+01  2.000E+04 -1.455E+00
   1   16   11     1    11    4.0200E+05 -2.9825E+04   4.3183E+05  0.000E+00  0.000E+00  0.000E+00  4.38293E+01  3.407E-01  2.000E+01  2.000E+04 -1.491E+00
   1   16   12     1    12    4.3183E+05 -3.5515E+04   4.6734E+05  0.000E+00  0.000E+00  0.000E+00  4.33678E+01  3.565E-01  2.000E+01  2.000E+04 -1.776E+00
   1   15   13     1    13    4.6734E+05 -3.3932E+04   5.0128E+05  0.000E+00  0.000E+00  0.000E+00  4.29068E+01  3.727E-01  2.000E+01  2.000E+04 -1.697E+00
   1   14   14     1    14    5.0128E+05 -3.4350E+04   5.3563E+05  0.000E+00  0.000E+00  0.000E+00  4.24451E+01  3.883E-01  2.000E+01  2.000E+04 -1.717E+00
   1   13   15     1    15    5.3563E+05 -3.6480E+04   5.7211E+05  0.000E+00  0.000E+00  0.000E+00  4.19835E+01  4.040E-01  2.000E+01  2.000E+04 -1.824E+00
   1   12   16     1    16    5.7211E+05 -4.2453E+04   6.1456E+05  0.000E+00  0.000E+00  0.000E+00  4.15233E+01  4.210E-01  2.000E+01  2.000E+04 -2.123E+00
   1   12   17     1    17    6.1456E+05 -3.3498E+04   6.4806E+05  0.000E+00  0.000E+00  0.000E+00  4.10620E+01  4.370E-01  2.000E+01  2.000E+04 -1.675E+00
   1   12   18     1    18    6.4806E+05 -3.2076E+04   6.8013E+05  0.000E+00  0.000E+00  0.000E+00  4.05982E+01  4.505E-01  2.000E+01  2.000E+04 -1.604E+00
   1   12   19     1    19    6.8013E+05 -3.6241E+04   7.1637E+05  0.000E+00  0.000E+00  0.000E+00  4.01347E+01  4.642E-01  2.000E+01  2.000E+04 -1.812E+00
   1   13   20     1    20    7.1637E+05 -2.6760E+04   7.4313E+05  0.000E+00  0.000E+00  0.000E+00  3.96699E+01  4.767E-01  2.000E+01  2.000E+04 -1.338E+00
   1   14   21     1    21    7.4313E+05 -1.9783E+04   7.6292E+05  0.000E+00  0.000E+00  0.000E+00  3.92017E+01  4.857E-01  2.000E+01  2.000E+04 -9.892E-01
   1   14   22     1    22    7.6292E+05 -1.8131E+03   7.6473E+05  0.000E+00  0.000E+00  0.000E+00  3.87286E+01  4.899E-01  2.000E+01  2.000E+04 -9.066E-02
   1    9   30     2     1    5.0000E+04 -2.6610E+04   7.6610E+04  0.000E+00  0.000E+00  0.000E+00  4.02585E+01  1.335E-01  2.000E+01  2.000E+04 -1.331E+00
   1    9   29     2     2    7.6610E+04 -2.9074E+04   1.0568E+05  0.000E+00  0.000E+00  0.000E+00  4.00411E+01  1.661E-01  2.000E+01  2.000E+04 -1.454E+00
   1    9   28     2     3    1.0568E+05 -3.3354E+04   1.3904E+05  0.000E+00  0.000E+00  0.000E+00  3.98232E+01  1.982E-01  2.000E+01  2.000E+04 -1.668E+00
   1    9   27     2     4    1.3904E+05 -4.7463E+04   1.8650E+05  0.000E+00  0.000E+00  0.000E+00  3.96102E+01  2.352E-01  2.000E+01  2.000E+04 -2.373E+00
   1   10   26     2     5    1.8650E+05 -3.3433E+04   2.1993E+05  0.000E+00  0.000E+00  0.000E+00  3.93938E+01  2.688E-01  2.000E+01  2.000E+04 -1.672E+00
   1   11   25     2     6    2.1993E+05 -2.5079E+04   2.4501E+05  0.000E+00  0.000E+00  0.000E+00  3.91663E+01  2.913E-01  2.000E+01  2.000E+04 -1.254E+00
   1   12   24     2     7    2.4501E+05 -1.8508E+04   2.6352E+05  0.000E+00  0.000E+00  0.000E+00  3.89324E+01  3.074E-01  2.000E+01  2.000E+04 -9.254E-01
   1   13   23     2     8    2.6352E+05 -1.3164E+04   2.7668E+05  0.000E+00  0.000E+00  0.000E+00  3.86938E+01  3.188E-01  2.000E+01  2.000E+04 -6.582E-01
   1   14   22     2     9    2.7668E+05 -7.3643E+03   2.8405E+05  0.000E+00  0.000E+00  0.000E+00  3.84510E+01  3.260E-01  2.000E+01  2.000E+04 -3.682E-01
   1   14   22     3     1    1.0488E+06 -1.5396E+04   1.0642E+06  0.000E+00  0.000E+00  0.000E+00  3.80494E+01  4.939E-01  2.000E+01  2.000E+04 -7.698E-01
   1   15   23     3     2    1.0642E+06 -2.3800E+04   1.0880E+06  0.000E+00  0.000E+00  0.000E+00  3.71660E+01  4.994E-01  2.000E+01  2.000E+04 -1.190E+00
   1   15   24     3     3    1.0880E+06 -1.9813E+04   1.1078E+06  0.000E+00  0.000E+00  0.000E+00  3.62832E+01  5.054E-01  2.000E+01  2.000E+04 -9.907E-01
   1   15   25     3     4    1.1078E+06 -1.9407E+04   1.1272E+06  0.000E+00  0.000E+00  0.000E+00  3.53997E+01  5.108E-01  2.000E+01  2.000E+04 -9.703E-01
   1   15   26     3     5    1.1272E+06 -2.2171E+04   1.1494E+06  0.000E+00  0.000E+00  0.000E+00  3.45165E+01  5.165E-01  2.000E+01  2.000E+04 -1.109E+00
   1   16   27     3     6    1.1494E+06 -2.9365E+04   1.1787E+06  0.000E+00  0.000E+00  0.000E+00  3.36346E+01  5.235E-01  2.000E+01  2.000E+04 -1.468E+00
   1   17   28     3     7    1.1787E+06 -3.6430E+04   1.2152E+06  0.000E+00  0.000E+00  0.000E+00  3.27545E+01  5.323E-01  2.000E+01  2.000E+04 -1.821E+00
   1   18   29     3     8    1.2152E+06 -4.7418E+04   1.2626E+06  0.000E+00  0.000E+00  0.000E+00  3.18767E+01  5.434E-01  2.000E+01  2.000E+04 -2.371E+00
   1   18   30     3     9    1.2626E+06 -4.3822E+04   1.3064E+06  0.000E+00  0.000E+00  0.000E+00  3.09998E+01  5.553E-01  2.000E+01  2.000E+04 -2.191E+00



1
              HEAD IN LAYER   1 AT END OF TIME STEP   1 IN STRESS PERIOD    8
  ---------------------------------------------------------------------------

          1      2      3      4      5      6      7      8      9     10
         11     12     13     14     15     16     17     18     19     20
         21     22     23     24     25     26     27     28     29     30
 .........................................................................
   1  ****** ****** ****** ****** ****** ****** ****** ****** ****** ******
      ****** ****** ****** ****** ****** ****** ****** ****** ****** ******
      ****** ****** ****** ****** ****** ****** ****** ****** ****** ******
   2  ****** ****** ****** ****** ****** ****** ****** ****** ****** ******
      ****** ****** ****** ****** ****** ****** ****** ****** ****** ******
      ****** ****** ****** ****** ****** ****** ****** ****** ****** ******
   3  ****** ****** ****** ****** ****** ****** ****** ****** ****** ******
      ****** ****** ****** ****** ****** ****** ****** ****** ****** ******
      ****** ****** ****** ****** ****** ****** ****** ****** ****** ******
   4  ****** ****** ****** ****** ****** ****** ****** ****** ****** ******
      ****** ****** ****** ****** ****** ****** ****** ****** ****** ******
      ****** ****** ****** ****** ****** ****** ****** ****** ****** ******
   5  ****** ****** ****** ****** ****** ****** ****** ****** ****** ******
      ****** ****** ****** ****** ****** ****** ****** ****** ****** ******
      ****** ****** ****** ****** ****** ****** ****** ****** ****** ******
   6  ****** ****** ****** ****** ****** ****** ****** ****** ****** ******
      ****** ****** ****** ****** ****** ****** ****** ****** ****** ******
      ****** ****** ****** ****** ****** ****** ****** ****** ****** ******
   7  ****** ****** ****** ****** ****** ****** ****** ****** ****** ******
      ****** ****** ****** ****** ****** ****** ****** ****** ****** ******
      ****** ****** ****** ****** ****** ****** ****** ****** ****** ******
   8  ****** ****** ****** ****** ****** ****** ****** ****** ****** ******
      ****** ****** ****** ****** ****** ****** ****** ****** ****** ******
      ****** ****** ****** ****** ****** ****** ****** ****** ****** ******
   9  ****** ****** ****** ****** ****** ****** ****** ****** ****** ******
      ****** ****** ****** ****** ****** ****** ****** ****** ****** ******
      ****** ****** ****** ****** ****** ****** ****** ****** ****** ******
  10  ****** ****** ****** ****** ****** ****** ****** ****** ****** ******
      ****** ****** ****** ****** ****** ****** ****** ****** ****** ******
      ****** ****** ****** ****** ****** ****** ****** ****** ****** ******
  11  ****** ****** ****** ****** ****** ****** ****** ****** ****** ******
      ****** ****** ****** ****** ****** ****** ****** ****** ****** ******
      ****** ****** ****** ****** ****** ****** ****** ****** ****** ******
  12  ****** ****** ****** ****** ****** ****** ****** ****** ****** ******
      ****** ****** ****** ****** ****** ****** ****** ****** ****** ******
      ****** ****** ****** ****** ****** ****** ****** ****** ****** ******
  13  ****** ****** ****** ****** ****** ****** ****** ****** ****** ******
      ****** ****** ****** ****** ****** ****** ****** ****** ****** ******
      ****** ****** ****** ****** ****** ****** ****** ****** ****** ******
  14  ****** ****** ****** ****** ****** ****** ****** ****** ****** ******
      ****** ****** ****** ****** ****** ****** ****** ****** ****** ******
      ****** ****** ****** ****** ****** ****** ****** ****** ****** ******
  15  ****** ****** ****** ****** ****** ****** ****** ****** ****** ******
      ****** ****** ****** ****** ****** ****** ****** ****** ****** ******
      ****** ****** ****** ****** ****** ****** ****** ****** ****** ******
  16  ****** ****** ****** ****** ****** ****** ****** ****** ****** ******
      ****** ****** ****** ****** ****** ****** ****** ****** ****** ******
      ****** ****** ****** ****** ****** ****** ****** ****** ****** ******
  17  ****** ****** ****** ****** ****** ****** ****** ****** ****** ******
      ****** ****** ****** ****** ****** ****** ****** ****** ****** ******
      ****** ****** ****** ****** ****** ****** ****** ****** ****** ******
  18  ****** ****** ****** ****** ****** ****** ****** ****** ****** ******
      ****** ****** ****** ****** ****** ****** ****** ****** ****** ******
      ****** ****** ****** ****** ****** ****** ****** ****** ****** ******
  19  ****** ****** ****** ****** ****** ****** ****** ****** ****** ******
      ****** ****** ****** ****** ****** ****** ****** ****** ****** ******
      ****** ****** ****** ****** ****** ****** ****** ****** ****** ******
  20  ****** ****** ****** ****** ****** ****** ****** ****** ****** ******
      ****** ****** ****** ****** ****** ****** ****** ****** ****** ******
      ****** ****** ****** ****** ****** ****** ****** ****** ****** ******
  21  ****** ****** ****** ****** ****** ****** ****** ****** ****** ******
      ****** ****** ****** ****** ****** ****** ****** ****** ****** ******
      ****** ****** ****** ****** ****** ****** ****** ****** ****** ******
  22  ****** ****** ****** ****** ****** ****** ****** ****** ****** ******
      ****** ****** ****** ****** ****** ****** ****** ****** ****** ******
      ****** ****** ****** ****** ****** ****** ****** ****** ****** ******
  23  ****** ****** ****** ****** ****** ****** ****** ****** ****** ******
      ****** ****** ****** ****** ****** ****** ****** ****** ****** ******
      ****** ****** ****** ****** ****** ****** ****** ****** ****** ******
  24  ****** ****** ****** ****** ****** ****** ****** ****** ****** ******
      ****** ****** ****** ****** ****** ****** ****** ****** ****** ******
      ****** ****** ****** ****** ****** ****** ****** ****** ****** ******
  25  ****** ****** ****** ****** ****** ****** ****** ****** ****** ******
      ****** ****** ****** ****** ****** ****** ****** ****** ****** ******
      ****** ****** ****** ****** ****** ****** ****** ****** ****** ******

 HEAD WILL BE SAVED ON UNIT   51 AT END OF TIME STEP    1, STRESS PERIOD    8
1
  VOLUMETRIC BUDGET FOR ENTIRE MODEL AT END OF TIME STEP    1, STRESS PERIOD   8
  ------------------------------------------------------------------------------

     CUMULATIVE VOLUMES      L**3       RATES FOR THIS TIME STEP      L**3/T
     ------------------                 ------------------------

           IN:                                      IN:
           ---                                      ---
             STORAGE =    20588281.3329               STORAGE =           0.0000
       CONSTANT HEAD =   878641310.8997         CONSTANT HEAD =     1209982.7847
               WELLS =           0.0000                 WELLS =           0.0000
            RECHARGE =    17608800.0000              RECHARGE =       27600.0000
      STREAM LEAKAGE =           0.0000        STREAM LEAKAGE =           0.0000

            TOTAL IN =   916838392.2326              TOTAL IN =     1237582.7847

          OUT:                                     OUT:
          ----                                     ----
             STORAGE =      370704.8767               STORAGE =        1183.7726
       CONSTANT HEAD =           0.0000         CONSTANT HEAD =           0.0000
               WELLS =    59310091.0000                 WELLS =       80000.0000
            RECHARGE =           0.0000              RECHARGE =           0.0000
      STREAM LEAKAGE =   857157602.9558        STREAM LEAKAGE =     1156398.9911

           TOTAL OUT =   916838398.8326             TOTAL OUT =     1237582.7637

            IN - OUT =          -6.6000              IN - OUT =       2.1004E-02

 PERCENT DISCREPANCY =          -0.00     PERCENT DISCREPANCY =           0.00






         TIME SUMMARY AT END OF TIME STEP    1 IN STRESS PERIOD    8
                    SECONDS     MINUTES      HOURS       DAYS        YEARS
                    -----------------------------------------------------------
   TIME STEP LENGTH 7.86240E+06 1.31040E+05  2184.0      91.000     0.24914    
 STRESS PERIOD TIME 7.86240E+06 1.31040E+05  2184.0      91.000     0.24914    
         TOTAL TIME 6.30720E+07 1.05120E+06  17520.      730.00      1.9986    
1
1
                            STRESS PERIOD NO.    9, LENGTH =   92.00000    
                            -----------------------------------------------

                              NUMBER OF TIME STEPS =     1

                               MULTIPLIER FOR DELT =     1.500

                            INITIAL TIME STEP SIZE =   92.00000    

 WELL NO.  LAYER   ROW   COL   STRESS RATE         
 --------------------------------------------------
      1      1      5      8     -0.5000E+05
      2      1      3      6     -0.3000E+05

      2 WELLS

                 RECHARGE =  5.000000E-04

 REUSING STREAM SEGMENT DATA FROM LAST STRESS PERIOD
 
 SOLVING FOR HEAD 


     5 CALLS TO PCG ROUTINE FOR TIME STEP   1 IN STRESS PERIOD    9
    20 TOTAL ITERATIONS

 OUTPUT CONTROL FOR STRESS PERIOD    9   TIME STEP    1
    SAVE BUDGET
    SAVE HEAD FOR ALL LAYERS
    PRINT HEAD FOR ALL LAYERS
 UBDSV2 SAVING "STREAMFLOW OUT  " ON UNIT  50 AT TIME STEP  1, STRESS PERIOD   9



 STREAM LISTING     PERIOD      9   STEP        1

 LAYER ROW COL. STREAM  RCH.  FLOW INTO     FLOW TO   FLOW OUT OF   OVRLND.     DIRECT     STREAM       STREAM     STREAM     STREAM   STREAMBED  STREAMBED
                SEG.NO.  NO.  STRM. RCH.    AQUIFER    STRM. RCH.    RUNOFF     PRECIP       ET          HEAD       DEPTH      WIDTH   CONDCTNC.   GRADIENT

   1   13    1     1     1    1.0000E+05 -2.5974E+04   1.2597E+05  0.000E+00  0.000E+00  0.000E+00  4.84170E+01  1.556E-01  2.000E+01  2.000E+04 -1.299E+00
   1   13    2     1     2    1.2597E+05 -3.5154E+04   1.6113E+05  0.000E+00  0.000E+00  0.000E+00  4.79638E+01  1.797E-01  2.000E+01  2.000E+04 -1.758E+00
   1   14    3     1     3    1.6113E+05 -3.1276E+04   1.9240E+05  0.000E+00  0.000E+00  0.000E+00  4.75104E+01  2.036E-01  2.000E+01  2.000E+04 -1.564E+00
   1   15    4     1     4    1.9240E+05 -3.0978E+04   2.2338E+05  0.000E+00  0.000E+00  0.000E+00  4.70539E+01  2.244E-01  2.000E+01  2.000E+04 -1.549E+00
   1   16    5     1     5    2.2338E+05 -3.3036E+04   2.5642E+05  0.000E+00  0.000E+00  0.000E+00  4.65968E+01  2.445E-01  2.000E+01  2.000E+04 -1.652E+00
   1   16    6     1     6    2.5642E+05 -2.8718E+04   2.8514E+05  0.000E+00  0.000E+00  0.000E+00  4.61380E+01  2.630E-01  2.000E+01  2.000E+04 -1.436E+00
   1   16    7     1     7    2.8514E+05 -2.8495E+04   3.1363E+05  0.000E+00  0.000E+00  0.000E+00  4.56770E+01  2.793E-01  2.000E+01  2.000E+04 -1.425E+00
   1   16    8     1     8    3.1363E+05 -2.8679E+04   3.4231E+05  0.000E+00  0.000E+00  0.000E+00  4.52155E+01  2.950E-01  2.000E+01  2.000E+04 -1.434E+00
   1   16    9     1     9    3.4231E+05 -2.8804E+04   3.7111E+05  0.000E+00  0.000E+00  0.000E+00  4.47534E+01  3.103E-01  2.000E+01  2.000E+04 -1.440E+00
   1   16   10     1    10    3.7111E+05 -2.8918E+04   4.0003E+05  0.000E+00  0.000E+00  0.000E+00  4.42910E+01  3.251E-01  2.000E+01  2.000E+04 -1.446E+00
   1   16   11     1    11    4.0003E+05 -2.9647E+04   4.2968E+05  0.000E+00  0.000E+00  0.000E+00  4.38283E+01  3.397E-01  2.000E+01  2.000E+04 -1.482E+00
   1   16   12     1    12    4.2968E+05 -3.5307E+04   4.6498E+05  0.000E+00  0.000E+00  0.000E+00  4.33668E+01  3.554E-01  2.000E+01  2.000E+04 -1.765E+00
   1   15   13     1    13    4.6498E+05 -3.3704E+04   4.9869E+05  0.000E+00  0.000E+00  0.000E+00  4.29057E+01  3.716E-01  2.000E+01  2.000E+04 -1.685E+00
   1   14   14     1    14    4.9869E+05 -3.4115E+04   5.3280E+05  0.000E+00  0.000E+00  0.000E+00  4.24439E+01  3.871E-01  2.000E+01  2.000E+04 -1.706E+00
   1   13   15     1    15    5.3280E+05 -3.6247E+04   5.6905E+05  0.000E+00  0.000E+00  0.000E+00  4.19822E+01  4.027E-01  2.000E+01  2.000E+04 -1.812E+00
   1   12   16     1    16    5.6905E+05 -4.2229E+04   6.1128E+05  0.000E+00  0.000E+00  0.000E+00  4.15219E+01  4.197E-01  2.000E+01  2.000E+04 -2.111E+00
   1   12   17     1    17    6.1128E+05 -3.3317E+04   6.4460E+05  0.000E+00  0.000E+00  0.000E+00  4.10606E+01  4.356E-01  2.000E+01  2.000E+04 -1.666E+00
   1   12   18     1    18    6.4460E+05 -3.1902E+04   6.7650E+05  0.000E+00  0.000E+00  0.000E+00  4.05967E+01  4.490E-01  2.000E+01  2.000E+04 -1.595E+00
   1   12   19     1    19    6.7650E+05 -3.6050E+04   7.1255E+05  0.000E+00  0.000E+00  0.000E+00  4.01332E+01  4.627E-01  2.000E+01  2.000E+04 -1.803E+00
   1   13   20     1    20    7.1255E+05 -2.6580E+04   7.3913E+05  0.000E+00  0.000E+00  0.000E+00  3.96683E+01  4.751E-01  2.000E+01  2.000E+04 -1.329E+00
   1   14   21     1    21    7.3913E+05 -1.9629E+04   7.5876E+05  0.000E+00  0.000E+00  0.000E+00  3.92001E+01  4.842E-01  2.000E+01  2.000E+04 -9.814E-01
   1   14   22     1    22    7.5876E+05 -1.7581E+03   7.6052E+05  0.000E+00  0.000E+00  0.000E+00  3.87269E+01  4.883E-01  2.000E+01  2.000E+04 -8.790E-02
   1    9   30     2     1    5.0000E+04 -2.6469E+04   7.6469E+04  0.000E+00  0.000E+00  0.000E+00  4.02584E+01  1.334E-01  2.000E+01  2.000E+04 -1.323E+00
   1    9   29     2     2    7.6469E+04 -2.8933E+04   1.0540E+05  0.000E+00  0.000E+00  0.000E+00  4.00409E+01  1.659E-01  2.000E+01  2.000E+04 -1.447E+00
   1    9   28     2     3    1.0540E+05 -3.3209E+04   1.3861E+05  0.000E+00  0.000E+00  0.000E+00  3.98229E+01  1.979E-01  2.000E+01  2.000E+04 -1.660E+00
   1    9   27     2     4    1.3861E+05 -4.7286E+04   1.8590E+05  0.000E+00  0.000E+00  0.000E+00  3.96098E+01  2.348E-01  2.000E+01  2.000E+04 -2.364E+00
   1   10   26     2     5    1.8590E+05 -3.3249E+04   2.1914E+05  0.000E+00  0.000E+00  0.000E+00  3.93932E+01  2.682E-01  2.000E+01  2.000E+04 -1.662E+00
   1   11   25     2     6    2.1914E+05 -2.4901E+04   2.4405E+05  0.000E+00  0.000E+00  0.000E+00  3.91657E+01  2.907E-01  2.000E+01  2.000E+04 -1.245E+00
   1   12   24     2     7    2.4405E+05 -1.8348E+04   2.6239E+05  0.000E+00  0.000E+00  0.000E+00  3.89317E+01  3.067E-01  2.000E+01  2.000E+04 -9.174E-01
   1   13   23     2     8    2.6239E+05 -1.3034E+04   2.7543E+05  0.000E+00  0.000E+00  0.000E+00  3.86929E+01  3.179E-01  2.000E+01  2.000E+04 -6.517E-01
   1   14   22     2     9    2.7543E+05 -7.2950E+03   2.8272E+05  0.000E+00  0.000E+00  0.000E+00  3.84501E+01  3.251E-01  2.000E+01  2.000E+04 -3.648E-01
   1   14   22     3     1    1.0432E+06 -1.5340E+04   1.0586E+06  0.000E+00  0.000E+00  0.000E+00  3.80479E+01  4.923E-01  2.000E+01  2.000E+04 -7.670E-01
   1   15   23     3     2    1.0586E+06 -2.3655E+04   1.0822E+06  0.000E+00  0.000E+00  0.000E+00  3.71644E+01  4.978E-01  2.000E+01  2.000E+04 -1.183E+00
   1   15   24     3     3    1.0822E+06 -1.9693E+04   1.1019E+06  0.000E+00  0.000E+00  0.000E+00  3.62816E+01  5.038E-01  2.000E+01  2.000E+04 -9.846E-01
   1   15   25     3     4    1.1019E+06 -1.9286E+04   1.1212E+06  0.000E+00  0.000E+00  0.000E+00  3.53981E+01  5.092E-01  2.000E+01  2.000E+04 -9.643E-01
   1   15   26     3     5    1.1212E+06 -2.2030E+04   1.1432E+06  0.000E+00  0.000E+00  0.000E+00  3.45148E+01  5.148E-01  2.000E+01  2.000E+04 -1.102E+00
   1   16   27     3     6    1.1432E+06 -2.9197E+04   1.1724E+06  0.000E+00  0.000E+00  0.000E+00  3.36329E+01  5.218E-01  2.000E+01  2.000E+04 -1.460E+00
   1   17   28     3     7    1.1724E+06 -3.6257E+04   1.2087E+06  0.000E+00  0.000E+00  0.000E+00  3.27528E+01  5.306E-01  2.000E+01  2.000E+04 -1.813E+00
   1   18   29     3     8    1.2087E+06 -4.7256E+04   1.2560E+06  0.000E+00  0.000E+00  0.000E+00  3.18750E+01  5.417E-01  2.000E+01  2.000E+04 -2.363E+00
   1   18   30     3     9    1.2560E+06 -4.3687E+04   1.2996E+06  0.000E+00  0.000E+00  0.000E+00  3.09980E+01  5.536E-01  2.000E+01  2.000E+04 -2.184E+00



1
              HEAD IN LAYER   1 AT END OF TIME STEP   1 IN STRESS PERIOD    9
  ---------------------------------------------------------------------------

          1      2      3      4      5      6      7      8      9     10
         11     12     13     14     15     16     17     18     19     20
         21     22     23     24     25     26     27     28     29     30
 .........................................................................
   1  ****** ****** ****** ****** ****** ****** ****** ****** ****** ******
      ****** ****** ****** ****** ****** ****** ****** ****** ****** ******
      ****** ****** ****** ****** ****** ****** ****** ****** ****** ******
   2  ****** ****** ****** ****** ****** ****** ****** ****** ****** ******
      ****** ****** ****** ****** ****** ****** ****** ****** ****** ******
      ****** ****** ****** ****** ****** ****** ****** ****** ****** ******
   3  ****** ****** ****** ****** ****** ****** ****** ****** ****** ******
      ****** ****** ****** ****** ****** ****** ****** ****** ****** ******
      ****** ****** ****** ****** ****** ****** ****** ****** ****** ******
   4  ****** ****** ****** ****** ****** ****** ****** ****** ****** ******
      ****** ****** ****** ****** ****** ****** ****** ****** ****** ******
      ****** ****** ****** ****** ****** ****** ****** ****** ****** ******
   5  ****** ****** ****** ****** ****** ****** ****** ****** ****** ******
      ****** ****** ****** ****** ****** ****** ****** ****** ****** ******
      ****** ****** ****** ****** ****** ****** ****** ****** ****** ******
   6  ****** ****** ****** ****** ****** ****** ****** ****** ****** ******
      ****** ****** ****** ****** ****** ****** ****** ****** ****** ******
      ****** ****** ****** ****** ****** ****** ****** ****** ****** ******
   7  ****** ****** ****** ****** ****** ****** ****** ****** ****** ******
      ****** ****** ****** ****** ****** ****** ****** ****** ****** ******
      ****** ****** ****** ****** ****** ****** ****** ****** ****** ******
   8  ****** ****** ****** ****** ****** ****** ****** ****** ****** ******
      ****** ****** ****** ****** ****** ****** ****** ****** ****** ******
      ****** ****** ****** ****** ****** ****** ****** ****** ****** ******
   9  ****** ****** ****** ****** ****** ****** ****** ****** ****** ******
      ****** ****** ****** ****** ****** ****** ****** ****** ****** ******
      ****** ****** ****** ****** ****** ****** ****** ****** ****** ******
  10  ****** ****** ****** ****** ****** ****** ****** ****** ****** ******
      ****** ****** ****** ****** ****** ****** ****** ****** ****** ******
      ****** ****** ****** ****** ****** ****** ****** ****** ****** ******
  11  ****** ****** ****** ****** ****** ****** ****** ****** ****** ******
      ****** ****** ****** ****** ****** ****** ****** ****** ****** ******
      ****** ****** ****** ****** ****** ****** ****** ****** ****** ******
  12  ****** ****** ****** ****** ****** ****** ****** ****** ****** ******
      ****** ****** ****** ****** ****** ****** ****** ****** ****** ******
      ****** ****** ****** ****** ****** ****** ****** ****** ****** ******
  13  ****** ****** ****** ****** ****** ****** ****** ****** ****** ******
      ****** ****** ****** ****** ****** ****** ****** ****** ****** ******
      ****** ****** ****** ****** ****** ****** ****** ****** ****** ******
  14  ****** ****** ****** ****** ****** ****** ****** ****** ****** ******
      ****** ****** ****** ****** ****** ****** ****** ****** ****** ******
      ****** ****** ****** ****** ****** ****** ****** ****** ****** ******
  15  ****** ****** ****** ****** ****** ****** ****** ****** ****** ******
      ****** ****** ****** ****** ****** ****** ****** ****** ****** ******
      ****** ****** ****** ****** ****** ****** ****** ****** ****** ******
  16  ****** ****** ****** ****** ****** ****** ****** ****** ****** ******
      ****** ****** ****** ****** ****** ****** ****** ****** ****** ******
      ****** ****** ****** ****** ****** ****** ****** ****** ****** ******
  17  ****** ****** ****** ****** ****** ****** ****** ****** ****** ******
      ****** ****** ****** ****** ****** ****** ****** ****** ****** ******
      ****** ****** ****** ****** ****** ****** ****** ****** ****** ******
  18  ****** ****** ****** ****** ****** ****** ****** ****** ****** ******
      ****** ****** ****** ****** ****** ****** ****** ****** ****** ******
      ****** ****** ****** ****** ****** ****** ****** ****** ****** ******
  19  ****** ****** ****** ****** ****** ****** ****** ****** ****** ******
      ****** ****** ****** ****** ****** ****** ****** ****** ****** ******
      ****** ****** ****** ****** ****** ****** ****** ****** ****** ******
  20  ****** ****** ****** ****** ****** ****** ****** ****** ****** ******
      ****** ****** ****** ****** ****** ****** ****** ****** ****** ******
      ****** ****** ****** ****** ****** ****** ****** ****** ****** ******
  21  ****** ****** ****** ****** ****** ****** ****** ****** ****** ******
      ****** ****** ****** ****** ****** ****** ****** ****** ****** ******
      ****** ****** ****** ****** ****** ****** ****** ****** ****** ******
  22  ****** ****** ****** ****** ****** ****** ****** ****** ****** ******
      ****** ****** ****** ****** ****** ****** ****** ****** ****** ******
      ****** ****** ****** ****** ****** ****** ****** ****** ****** ******
  23  ****** ****** ****** ****** ****** ****** ****** ****** ****** ******
      ****** ****** ****** ****** ****** ****** ****** ****** ****** ******
      ****** ****** ****** ****** ****** ****** ****** ****** ****** ******
  24  ****** ****** ****** ****** ****** ****** ****** ****** ****** ******
      ****** ****** ****** ****** ****** ****** ****** ****** ****** ******
      ****** ****** ****** ****** ****** ****** ****** ****** ****** ******
  25  ****** ****** ****** ****** ****** ****** ****** ****** ****** ******
      ****** ****** ****** ****** ****** ****** ****** ****** ****** ******
      ****** ****** ****** ****** ****** ****** ****** ****** ****** ******

 HEAD WILL BE SAVED ON UNIT   51 AT END OF TIME STEP    1, STRESS PERIOD    9
1
  VOLUMETRIC BUDGET FOR ENTIRE MODEL AT END OF TIME STEP    1, STRESS PERIOD   9
  ------------------------------------------------------------------------------

     CUMULATIVE VOLUMES      L**3       RATES FOR THIS TIME STEP      L**3/T
     ------------------                 ------------------------

           IN:                                      IN:
           ---                                      ---
             STORAGE =    20641896.5697               STORAGE =         582.7743
       CONSTANT HEAD =   990444867.7799         CONSTANT HEAD =     1215256.0530
               WELLS =           0.0000                 WELLS =           0.0000
            RECHARGE =    18878400.0000              RECHARGE =       13800.0000
      STREAM LEAKAGE =           0.0000        STREAM LEAKAGE =           0.0000

            TOTAL IN =  1029965164.3497              TOTAL IN =     1229638.8274

          OUT:                                     OUT:
          ----                                     ----
             STORAGE =      370704.8767               STORAGE =           0.0000
       CONSTANT HEAD =           0.0000         CONSTANT HEAD =           0.0000
               WELLS =    66670091.0000                 WELLS =       80000.0000
            RECHARGE =           0.0000              RECHARGE =           0.0000
      STREAM LEAKAGE =   962924376.8994        STREAM LEAKAGE =     1149638.8472

           TOTAL OUT =  1029965172.7762             TOTAL OUT =     1229638.8472

            IN - OUT =          -8.4265              IN - OUT =      -1.9854E-02

 PERCENT DISCREPANCY =          -0.00     PERCENT DISCREPANCY =          -0.00






         TIME SUMMARY AT END OF TIME STEP    1 IN STRESS PERIOD    9
                    SECONDS     MINUTES      HOURS       DAYS        YEARS
                    -----------------------------------------------------------
   TIME STEP LENGTH 7.94880E+06 1.32480E+05  2208.0      92.000     0.25188    
 STRESS PERIOD TIME 7.94880E+06 1.32480E+05  2208.0      92.000     0.25188    
         TOTAL TIME 7.10208E+07 1.18368E+06  19728.      822.00      2.2505    
1
1
                            STRESS PERIOD NO.   10, LENGTH =   91.00000    
                            -----------------------------------------------

                              NUMBER OF TIME STEPS =     1

                               MULTIPLIER FOR DELT =     1.500

                            INITIAL TIME STEP SIZE =   91.00000    

 WELL NO.  LAYER   ROW   COL   STRESS RATE         
 --------------------------------------------------
      1      1      5      8     -0.5000E+05
      2      1      3      6     -0.3000E+05
      3      1      3      9      -5001.    

      3 WELLS

                 RECHARGE =  2.000000E-03

 REUSING STREAM SEGMENT DATA FROM LAST STRESS PERIOD
 
 SOLVING FOR HEAD 


     6 CALLS TO PCG ROUTINE FOR TIME STEP   1 IN STRESS PERIOD   10
    22 TOTAL ITERATIONS

 OUTPUT CONTROL FOR STRESS PERIOD   10   TIME STEP    1
    SAVE BUDGET
    SAVE HEAD FOR ALL LAYERS
    PRINT HEAD FOR ALL LAYERS
 UBDSV2 SAVING "STREAMFLOW OUT  " ON UNIT  50 AT TIME STEP  1, STRESS PERIOD  10



 STREAM LISTING     PERIOD     10   STEP        1

 LAYER ROW COL. STREAM  RCH.  FLOW INTO     FLOW TO   FLOW OUT OF   OVRLND.     DIRECT     STREAM       STREAM     STREAM     STREAM   STREAMBED  STREAMBED
                SEG.NO.  NO.  STRM. RCH.    AQUIFER    STRM. RCH.    RUNOFF     PRECIP       ET          HEAD       DEPTH      WIDTH   CONDCTNC.   GRADIENT

   1   13    1     1     1    1.0000E+05 -2.6580E+04   1.2658E+05  0.000E+00  0.000E+00  0.000E+00  4.84173E+01  1.559E-01  2.000E+01  2.000E+04 -1.329E+00
   1   13    2     1     2    1.2658E+05 -3.5871E+04   1.6245E+05  0.000E+00  0.000E+00  0.000E+00  4.79645E+01  1.804E-01  2.000E+01  2.000E+04 -1.794E+00
   1   14    3     1     3    1.6245E+05 -3.1992E+04   1.9444E+05  0.000E+00  0.000E+00  0.000E+00  4.75116E+01  2.048E-01  2.000E+01  2.000E+04 -1.600E+00
   1   15    4     1     4    1.9444E+05 -3.1676E+04   2.2612E+05  0.000E+00  0.000E+00  0.000E+00  4.70555E+01  2.259E-01  2.000E+01  2.000E+04 -1.584E+00
   1   16    5     1     5    2.2612E+05 -3.3678E+04   2.5980E+05  0.000E+00  0.000E+00  0.000E+00  4.65987E+01  2.464E-01  2.000E+01  2.000E+04 -1.684E+00
   1   16    6     1     6    2.5980E+05 -2.9271E+04   2.8907E+05  0.000E+00  0.000E+00  0.000E+00  4.61401E+01  2.651E-01  2.000E+01  2.000E+04 -1.464E+00
   1   16    7     1     7    2.8907E+05 -2.9040E+04   3.1811E+05  0.000E+00  0.000E+00  0.000E+00  4.56794E+01  2.816E-01  2.000E+01  2.000E+04 -1.452E+00
   1   16    8     1     8    3.1811E+05 -2.9224E+04   3.4733E+05  0.000E+00  0.000E+00  0.000E+00  4.52180E+01  2.976E-01  2.000E+01  2.000E+04 -1.461E+00
   1   16    9     1     9    3.4733E+05 -2.9349E+04   3.7668E+05  0.000E+00  0.000E+00  0.000E+00  4.47562E+01  3.130E-01  2.000E+01  2.000E+04 -1.467E+00
   1   16   10     1    10    3.7668E+05 -2.9463E+04   4.0614E+05  0.000E+00  0.000E+00  0.000E+00  4.42939E+01  3.280E-01  2.000E+01  2.000E+04 -1.473E+00
   1   16   11     1    11    4.0614E+05 -3.0202E+04   4.3634E+05  0.000E+00  0.000E+00  0.000E+00  4.38314E+01  3.428E-01  2.000E+01  2.000E+04 -1.510E+00
   1   16   12     1    12    4.3634E+05 -3.5961E+04   4.7231E+05  0.000E+00  0.000E+00  0.000E+00  4.33701E+01  3.587E-01  2.000E+01  2.000E+04 -1.798E+00
   1   15   13     1    13    4.7231E+05 -3.4415E+04   5.0672E+05  0.000E+00  0.000E+00  0.000E+00  4.29092E+01  3.751E-01  2.000E+01  2.000E+04 -1.721E+00
   1   14   14     1    14    5.0672E+05 -3.4842E+04   5.4156E+05  0.000E+00  0.000E+00  0.000E+00  4.24477E+01  3.908E-01  2.000E+01  2.000E+04 -1.742E+00
   1   13   15     1    15    5.4156E+05 -3.6962E+04   5.7852E+05  0.000E+00  0.000E+00  0.000E+00  4.19862E+01  4.067E-01  2.000E+01  2.000E+04 -1.848E+00
   1   12   16     1    16    5.7852E+05 -4.2912E+04   6.2144E+05  0.000E+00  0.000E+00  0.000E+00  4.15261E+01  4.238E-01  2.000E+01  2.000E+04 -2.146E+00
   1   12   17     1    17    6.2144E+05 -3.3879E+04   6.5532E+05  0.000E+00  0.000E+00  0.000E+00  4.10649E+01  4.399E-01  2.000E+01  2.000E+04 -1.694E+00
   1   12   18     1    18    6.5532E+05 -3.2445E+04   6.8776E+05  0.000E+00  0.000E+00  0.000E+00  4.06012E+01  4.535E-01  2.000E+01  2.000E+04 -1.622E+00
   1   12   19     1    19    6.8776E+05 -3.6649E+04   7.2441E+05  0.000E+00  0.000E+00  0.000E+00  4.01378E+01  4.673E-01  2.000E+01  2.000E+04 -1.832E+00
   1   13   20     1    20    7.2441E+05 -2.7148E+04   7.5156E+05  0.000E+00  0.000E+00  0.000E+00  3.96731E+01  4.799E-01  2.000E+01  2.000E+04 -1.357E+00
   1   14   21     1    21    7.5156E+05 -2.0122E+04   7.7168E+05  0.000E+00  0.000E+00  0.000E+00  3.92050E+01  4.891E-01  2.000E+01  2.000E+04 -1.006E+00
   1   14   22     1    22    7.7168E+05 -1.9328E+03   7.7361E+05  0.000E+00  0.000E+00  0.000E+00  3.87319E+01  4.933E-01  2.000E+01  2.000E+04 -9.664E-02
   1    9   30     2     1    5.0000E+04 -2.6913E+04   7.6913E+04  0.000E+00  0.000E+00  0.000E+00  4.02587E+01  1.337E-01  2.000E+01  2.000E+04 -1.346E+00
   1    9   29     2     2    7.6913E+04 -2.9376E+04   1.0629E+05  0.000E+00  0.000E+00  0.000E+00  4.00416E+01  1.666E-01  2.000E+01  2.000E+04 -1.469E+00
   1    9   28     2     3    1.0629E+05 -3.3667E+04   1.3996E+05  0.000E+00  0.000E+00  0.000E+00  3.98240E+01  1.990E-01  2.000E+01  2.000E+04 -1.683E+00
   1    9   27     2     4    1.3996E+05 -4.7846E+04   1.8780E+05  0.000E+00  0.000E+00  0.000E+00  3.96112E+01  2.362E-01  2.000E+01  2.000E+04 -2.392E+00
   1   10   26     2     5    1.8780E+05 -3.3829E+04   2.2163E+05  0.000E+00  0.000E+00  0.000E+00  3.93949E+01  2.699E-01  2.000E+01  2.000E+04 -1.691E+00
   1   11   25     2     6    2.2163E+05 -2.5460E+04   2.4709E+05  0.000E+00  0.000E+00  0.000E+00  3.91678E+01  2.928E-01  2.000E+01  2.000E+04 -1.273E+00
   1   12   24     2     7    2.4709E+05 -1.8848E+04   2.6594E+05  0.000E+00  0.000E+00  0.000E+00  3.89341E+01  3.091E-01  2.000E+01  2.000E+04 -9.424E-01
   1   13   23     2     8    2.6594E+05 -1.3440E+04   2.7938E+05  0.000E+00  0.000E+00  0.000E+00  3.86956E+01  3.206E-01  2.000E+01  2.000E+04 -6.720E-01
   1   14   22     2     9    2.7938E+05 -7.5131E+03   2.8689E+05  0.000E+00  0.000E+00  0.000E+00  3.84529E+01  3.279E-01  2.000E+01  2.000E+04 -3.757E-01
   1   14   22     3     1    1.0605E+06 -1.5517E+04   1.0760E+06  0.000E+00  0.000E+00  0.000E+00  3.80527E+01  4.972E-01  2.000E+01  2.000E+04 -7.758E-01
   1   15   23     3     2    1.0760E+06 -2.4116E+04   1.1001E+06  0.000E+00  0.000E+00  0.000E+00  3.71694E+01  5.027E-01  2.000E+01  2.000E+04 -1.206E+00
   1   15   24     3     3    1.1001E+06 -2.0074E+04   1.1202E+06  0.000E+00  0.000E+00  0.000E+00  3.62866E+01  5.088E-01  2.000E+01  2.000E+04 -1.004E+00
   1   15   25     3     4    1.1202E+06 -1.9665E+04   1.1399E+06  0.000E+00  0.000E+00  0.000E+00  3.54031E+01  5.142E-01  2.000E+01  2.000E+04 -9.833E-01
   1   15   26     3     5    1.1399E+06 -2.2471E+04   1.1623E+06  0.000E+00  0.000E+00  0.000E+00  3.45200E+01  5.200E-01  2.000E+01  2.000E+04 -1.124E+00
   1   16   27     3     6    1.1623E+06 -2.9729E+04   1.1921E+06  0.000E+00  0.000E+00  0.000E+00  3.36381E+01  5.270E-01  2.000E+01  2.000E+04 -1.486E+00
   1   17   28     3     7    1.1921E+06 -3.6802E+04   1.2289E+06  0.000E+00  0.000E+00  0.000E+00  3.27581E+01  5.359E-01  2.000E+01  2.000E+04 -1.840E+00
   1   18   29     3     8    1.2289E+06 -4.7768E+04   1.2766E+06  0.000E+00  0.000E+00  0.000E+00  3.18804E+01  5.470E-01  2.000E+01  2.000E+04 -2.388E+00
   1   18   30     3     9    1.2766E+06 -4.4114E+04   1.3208E+06  0.000E+00  0.000E+00  0.000E+00  3.10034E+01  5.590E-01  2.000E+01  2.000E+04 -2.206E+00



1
              HEAD IN LAYER   1 AT END OF TIME STEP   1 IN STRESS PERIOD   10
  ---------------------------------------------------------------------------

          1      2      3      4      5      6      7      8      9     10
         11     12     13     14     15     16     17     18     19     20
         21     22     23     24     25     26     27     28     29     30
 .........................................................................
   1  ****** ****** ****** ****** ****** ****** ****** ****** ****** ******
      ****** ****** ****** ****** ****** ****** ****** ****** ****** ******
      ****** ****** ****** ****** ****** ****** ****** ****** ****** ******
   2  ****** ****** ****** ****** ****** ****** ****** ****** ****** ******
      ****** ****** ****** ****** ****** ****** ****** ****** ****** ******
      ****** ****** ****** ****** ****** ****** ****** ****** ****** ******
   3  ****** ****** ****** ****** ****** ****** ****** ****** ****** ******
      ****** ****** ****** ****** ****** ****** ****** ****** ****** ******
      ****** ****** ****** ****** ****** ****** ****** ****** ****** ******
   4  ****** ****** ****** ****** ****** ****** ****** ****** ****** ******
      ****** ****** ****** ****** ****** ****** ****** ****** ****** ******
      ****** ****** ****** ****** ****** ****** ****** ****** ****** ******
   5  ****** ****** ****** ****** ****** ****** ****** ****** ****** ******
      ****** ****** ****** ****** ****** ****** ****** ****** ****** ******
      ****** ****** ****** ****** ****** ****** ****** ****** ****** ******
   6  ****** ****** ****** ****** ****** ****** ****** ****** ****** ******
      ****** ****** ****** ****** ****** ****** ****** ****** ****** ******
      ****** ****** ****** ****** ****** ****** ****** ****** ****** ******
   7  ****** ****** ****** ****** ****** ****** ****** ****** ****** ******
      ****** ****** ****** ****** ****** ****** ****** ****** ****** ******
      ****** ****** ****** ****** ****** ****** ****** ****** ****** ******
   8  ****** ****** ****** ****** ****** ****** ****** ****** ****** ******
      ****** ****** ****** ****** ****** ****** ****** ****** ****** ******
      ****** ****** ****** ****** ****** ****** ****** ****** ****** ******
   9  ****** ****** ****** ****** ****** ****** ****** ****** ****** ******
      ****** ****** ****** ****** ****** ****** ****** ****** ****** ******
      ****** ****** ****** ****** ****** ****** ****** ****** ****** ******
  10  ****** ****** ****** ****** ****** ****** ****** ****** ****** ******
      ****** ****** ****** ****** ****** ****** ****** ****** ****** ******
      ****** ****** ****** ****** ****** ****** ****** ****** ****** ******
  11  ****** ****** ****** ****** ****** ****** ****** ****** ****** ******
      ****** ****** ****** ****** ****** ****** ****** ****** ****** ******
      ****** ****** ****** ****** ****** ****** ****** ****** ****** ******
  12  ****** ****** ****** ****** ****** ****** ****** ****** ****** ******
      ****** ****** ****** ****** ****** ****** ****** ****** ****** ******
      ****** ****** ****** ****** ****** ****** ****** ****** ****** ******
  13  ****** ****** ****** ****** ****** ****** ****** ****** ****** ******
      ****** ****** ****** ****** ****** ****** ****** ****** ****** ******
      ****** ****** ****** ****** ****** ****** ****** ****** ****** ******
  14  ****** ****** ****** ****** ****** ****** ****** ****** ****** ******
      ****** ****** ****** ****** ****** ****** ****** ****** ****** ******
      ****** ****** ****** ****** ****** ****** ****** ****** ****** ******
  15  ****** ****** ****** ****** ****** ****** ****** ****** ****** ******
      ****** ****** ****** ****** ****** ****** ****** ****** ****** ******
      ****** ****** ****** ****** ****** ****** ****** ****** ****** ******
  16  ****** ****** ****** ****** ****** ****** ****** ****** ****** ******
      ****** ****** ****** ****** ****** ****** ****** ****** ****** ******
      ****** ****** ****** ****** ****** ****** ****** ****** ****** ******
  17  ****** ****** ****** ****** ****** ****** ****** ****** ****** ******
      ****** ****** ****** ****** ****** ****** ****** ****** ****** ******
      ****** ****** ****** ****** ****** ****** ****** ****** ****** ******
  18  ****** ****** ****** ****** ****** ****** ****** ****** ****** ******
      ****** ****** ****** ****** ****** ****** ****** ****** ****** ******
      ****** ****** ****** ****** ****** ****** ****** ****** ****** ******
  19  ****** ****** ****** ****** ****** ****** ****** ****** ****** ******
      ****** ****** ****** ****** ****** ****** ****** ****** ****** ******
      ****** ****** ****** ****** ****** ****** ****** ****** ****** ******
  20  ****** ****** ****** ****** ****** ****** ****** ****** ****** ******
      ****** ****** ****** ****** ****** ****** ****** ****** ****** ******
      ****** ****** ****** ****** ****** ****** ****** ****** ****** ******
  21  ****** ****** ****** ****** ****** ****** ****** ****** ****** ******
      ****** ****** ****** ****** ****** ****** ****** ****** ****** ******
      ****** ****** ****** ****** ****** ****** ****** ****** ****** ******
  22  ****** ****** ****** ****** ****** ****** ****** ****** ****** ******
      ****** ****** ****** ****** ****** ****** ****** ****** ****** ******
      ****** ****** ****** ****** ****** ****** ****** ****** ****** ******
  23  ****** ****** ****** ****** ****** ****** ****** ****** ****** ******
      ****** ****** ****** ****** ****** ****** ****** ****** ****** ******
      ****** ****** ****** ****** ****** ****** ****** ****** ****** ******
  24  ****** ****** ****** ****** ****** ****** ****** ****** ****** ******
      ****** ****** ****** ****** ****** ****** ****** ****** ****** ******
      ****** ****** ****** ****** ****** ****** ****** ****** ****** ******
  25  ****** ****** ****** ****** ****** ****** ****** ****** ****** ******
      ****** ****** ****** ****** ****** ****** ****** ****** ****** ******
      ****** ****** ****** ****** ****** ****** ****** ****** ****** ******

 HEAD WILL BE SAVED ON UNIT   51 AT END OF TIME STEP    1, STRESS PERIOD   10
1
  VOLUMETRIC BUDGET FOR ENTIRE MODEL AT END OF TIME STEP    1, STRESS PERIOD  10
  ------------------------------------------------------------------------------

     CUMULATIVE VOLUMES      L**3       RATES FOR THIS TIME STEP      L**3/T
     ------------------                 ------------------------

           IN:                                      IN:
           ---                                      ---
             STORAGE =    20643597.7931               STORAGE =          18.6948
       CONSTANT HEAD =  1099850930.3962         CONSTANT HEAD =     1202264.4244
               WELLS =           0.0000                 WELLS =           0.0000
            RECHARGE =    23901600.0000              RECHARGE =       55200.0000
      STREAM LEAKAGE =           0.0000        STREAM LEAKAGE =           0.0000

            TOTAL IN =  1144396128.1893              TOTAL IN =     1257483.1191

          OUT:                                     OUT:
          ----                                     ----
             STORAGE =      527248.5127               STORAGE =        1720.2597
       CONSTANT HEAD =           0.0000         CONSTANT HEAD =           0.0000
               WELLS =    74405136.5000                 WELLS =       85000.5000
            RECHARGE =           0.0000              RECHARGE =           0.0000
      STREAM LEAKAGE =  1069463748.6997        STREAM LEAKAGE =     1170762.3275

           TOTAL OUT =  1144396133.7124             TOTAL OUT =     1257483.0872

            IN - OUT =          -5.5231              IN - OUT =       3.1905E-02

 PERCENT DISCREPANCY =          -0.00     PERCENT DISCREPANCY =           0.00






         TIME SUMMARY AT END OF TIME STEP    1 IN STRESS PERIOD   10
                    SECONDS     MINUTES      HOURS       DAYS        YEARS
                    -----------------------------------------------------------
   TIME STEP LENGTH 7.86240E+06 1.31040E+05  2184.0      91.000     0.24914    
 STRESS PERIOD TIME 7.86240E+06 1.31040E+05  2184.0      91.000     0.24914    
         TOTAL TIME 7.88832E+07 1.31472E+06  21912.      913.00      2.4997    
1
1
                            STRESS PERIOD NO.   11, LENGTH =   91.00000    
                            -----------------------------------------------

                              NUMBER OF TIME STEPS =     1

                               MULTIPLIER FOR DELT =     1.500

                            INITIAL TIME STEP SIZE =   91.00000    

 WELL NO.  LAYER   ROW   COL   STRESS RATE         
 --------------------------------------------------
      1      1      5      8     -0.5000E+05
      2      1      3      6     -0.3000E+05

      2 WELLS

                 RECHARGE =   0.00000    

 REUSING STREAM SEGMENT DATA FROM LAST STRESS PERIOD
 
 SOLVING FOR HEAD 


     6 CALLS TO PCG ROUTINE FOR TIME STEP   1 IN STRESS PERIOD   11
    22 TOTAL ITERATIONS

 OUTPUT CONTROL FOR STRESS PERIOD   11   TIME STEP    1
    SAVE BUDGET
    SAVE HEAD FOR ALL LAYERS
    PRINT HEAD FOR ALL LAYERS
 UBDSV2 SAVING "STREAMFLOW OUT  " ON UNIT  50 AT TIME STEP  1, STRESS PERIOD  11



 STREAM LISTING     PERIOD     11   STEP        1

 LAYER ROW COL. STREAM  RCH.  FLOW INTO     FLOW TO   FLOW OUT OF   OVRLND.     DIRECT     STREAM       STREAM     STREAM     STREAM   STREAMBED  STREAMBED
                SEG.NO.  NO.  STRM. RCH.    AQUIFER    STRM. RCH.    RUNOFF     PRECIP       ET          HEAD       DEPTH      WIDTH   CONDCTNC.   GRADIENT

   1   13    1     1     1    1.0000E+05 -2.5774E+04   1.2577E+05  0.000E+00  0.000E+00  0.000E+00  4.84169E+01  1.556E-01  2.000E+01  2.000E+04 -1.289E+00
   1   13    2     1     2    1.2577E+05 -3.4915E+04   1.6069E+05  0.000E+00  0.000E+00  0.000E+00  4.79635E+01  1.795E-01  2.000E+01  2.000E+04 -1.746E+00
   1   14    3     1     3    1.6069E+05 -3.1041E+04   1.9173E+05  0.000E+00  0.000E+00  0.000E+00  4.75100E+01  2.032E-01  2.000E+01  2.000E+04 -1.552E+00
   1   15    4     1     4    1.9173E+05 -3.0752E+04   2.2248E+05  0.000E+00  0.000E+00  0.000E+00  4.70534E+01  2.239E-01  2.000E+01  2.000E+04 -1.538E+00
   1   16    5     1     5    2.2248E+05 -3.2832E+04   2.5531E+05  0.000E+00  0.000E+00  0.000E+00  4.65962E+01  2.439E-01  2.000E+01  2.000E+04 -1.642E+00
   1   16    6     1     6    2.5531E+05 -2.8541E+04   2.8386E+05  0.000E+00  0.000E+00  0.000E+00  4.61373E+01  2.623E-01  2.000E+01  2.000E+04 -1.427E+00
   1   16    7     1     7    2.8386E+05 -2.8319E+04   3.1218E+05  0.000E+00  0.000E+00  0.000E+00  4.56763E+01  2.785E-01  2.000E+01  2.000E+04 -1.416E+00
   1   16    8     1     8    3.1218E+05 -2.8502E+04   3.4068E+05  0.000E+00  0.000E+00  0.000E+00  4.52146E+01  2.942E-01  2.000E+01  2.000E+04 -1.425E+00
   1   16    9     1     9    3.4068E+05 -2.8628E+04   3.6931E+05  0.000E+00  0.000E+00  0.000E+00  4.47525E+01  3.094E-01  2.000E+01  2.000E+04 -1.431E+00
   1   16   10     1    10    3.6931E+05 -2.8742E+04   3.9805E+05  0.000E+00  0.000E+00  0.000E+00  4.42900E+01  3.241E-01  2.000E+01  2.000E+04 -1.437E+00
   1   16   11     1    11    3.9805E+05 -2.9469E+04   4.2752E+05  0.000E+00  0.000E+00  0.000E+00  4.38273E+01  3.387E-01  2.000E+01  2.000E+04 -1.473E+00
   1   16   12     1    12    4.2752E+05 -3.5101E+04   4.6262E+05  0.000E+00  0.000E+00  0.000E+00  4.33657E+01  3.543E-01  2.000E+01  2.000E+04 -1.755E+00
   1   15   13     1    13    4.6262E+05 -3.3476E+04   4.9609E+05  0.000E+00  0.000E+00  0.000E+00  4.29045E+01  3.704E-01  2.000E+01  2.000E+04 -1.674E+00
   1   14   14     1    14    4.9609E+05 -3.3879E+04   5.2997E+05  0.000E+00  0.000E+00  0.000E+00  4.24427E+01  3.858E-01  2.000E+01  2.000E+04 -1.694E+00
   1   13   15     1    15    5.2997E+05 -3.6013E+04   5.6599E+05  0.000E+00  0.000E+00  0.000E+00  4.19810E+01  4.014E-01  2.000E+01  2.000E+04 -1.801E+00
   1   12   16     1    16    5.6599E+05 -4.2003E+04   6.0799E+05  0.000E+00  0.000E+00  0.000E+00  4.15206E+01  4.183E-01  2.000E+01  2.000E+04 -2.100E+00
   1   12   17     1    17    6.0799E+05 -3.3135E+04   6.4112E+05  0.000E+00  0.000E+00  0.000E+00  4.10592E+01  4.342E-01  2.000E+01  2.000E+04 -1.657E+00
   1   12   18     1    18    6.4112E+05 -3.1728E+04   6.7285E+05  0.000E+00  0.000E+00  0.000E+00  4.05953E+01  4.476E-01  2.000E+01  2.000E+04 -1.586E+00
   1   12   19     1    19    6.7285E+05 -3.5860E+04   7.0871E+05  0.000E+00  0.000E+00  0.000E+00  4.01317E+01  4.612E-01  2.000E+01  2.000E+04 -1.793E+00
   1   13   20     1    20    7.0871E+05 -2.6401E+04   7.3511E+05  0.000E+00  0.000E+00  0.000E+00  3.96668E+01  4.736E-01  2.000E+01  2.000E+04 -1.320E+00
   1   14   21     1    21    7.3511E+05 -1.9475E+04   7.5459E+05  0.000E+00  0.000E+00  0.000E+00  3.91985E+01  4.826E-01  2.000E+01  2.000E+04 -9.737E-01
   1   14   22     1    22    7.5459E+05 -1.7035E+03   7.5629E+05  0.000E+00  0.000E+00  0.000E+00  3.87253E+01  4.867E-01  2.000E+01  2.000E+04 -8.518E-02
   1    9   30     2     1    5.0000E+04 -2.6328E+04   7.6328E+04  0.000E+00  0.000E+00  0.000E+00  4.02583E+01  1.333E-01  2.000E+01  2.000E+04 -1.316E+00
   1    9   29     2     2    7.6328E+04 -2.8792E+04   1.0512E+05  0.000E+00  0.000E+00  0.000E+00  4.00407E+01  1.657E-01  2.000E+01  2.000E+04 -1.440E+00
   1    9   28     2     3    1.0512E+05 -3.3064E+04   1.3818E+05  0.000E+00  0.000E+00  0.000E+00  3.98225E+01  1.975E-01  2.000E+01  2.000E+04 -1.653E+00
   1    9   27     2     4    1.3818E+05 -4.7110E+04   1.8529E+05  0.000E+00  0.000E+00  0.000E+00  3.96093E+01  2.343E-01  2.000E+01  2.000E+04 -2.355E+00
   1   10   26     2     5    1.8529E+05 -3.3065E+04   2.1836E+05  0.000E+00  0.000E+00  0.000E+00  3.93926E+01  2.676E-01  2.000E+01  2.000E+04 -1.653E+00
   1   11   25     2     6    2.1836E+05 -2.4724E+04   2.4308E+05  0.000E+00  0.000E+00  0.000E+00  3.91650E+01  2.900E-01  2.000E+01  2.000E+04 -1.236E+00
   1   12   24     2     7    2.4308E+05 -1.8190E+04   2.6127E+05  0.000E+00  0.000E+00  0.000E+00  3.89309E+01  3.059E-01  2.000E+01  2.000E+04 -9.095E-01
   1   13   23     2     8    2.6127E+05 -1.2905E+04   2.7418E+05  0.000E+00  0.000E+00  0.000E+00  3.86921E+01  3.171E-01  2.000E+01  2.000E+04 -6.453E-01
   1   14   22     2     9    2.7418E+05 -7.2260E+03   2.8141E+05  0.000E+00  0.000E+00  0.000E+00  3.84492E+01  3.242E-01  2.000E+01  2.000E+04 -3.613E-01
   1   14   22     3     1    1.0377E+06 -1.5284E+04   1.0530E+06  0.000E+00  0.000E+00  0.000E+00  3.80463E+01  4.907E-01  2.000E+01  2.000E+04 -7.642E-01
   1   15   23     3     2    1.0530E+06 -2.3512E+04   1.0765E+06  0.000E+00  0.000E+00  0.000E+00  3.71629E+01  4.962E-01  2.000E+01  2.000E+04 -1.176E+00
   1   15   24     3     3    1.0765E+06 -1.9573E+04   1.0961E+06  0.000E+00  0.000E+00  0.000E+00  3.62800E+01  5.022E-01  2.000E+01  2.000E+04 -9.787E-01
   1   15   25     3     4    1.0961E+06 -1.9167E+04   1.1152E+06  0.000E+00  0.000E+00  0.000E+00  3.53964E+01  5.075E-01  2.000E+01  2.000E+04 -9.584E-01
   1   15   26     3     5    1.1152E+06 -2.1891E+04   1.1371E+06  0.000E+00  0.000E+00  0.000E+00  3.45132E+01  5.132E-01  2.000E+01  2.000E+04 -1.095E+00
   1   16   27     3     6    1.1371E+06 -2.9029E+04   1.1662E+06  0.000E+00  0.000E+00  0.000E+00  3.36312E+01  5.201E-01  2.000E+01  2.000E+04 -1.451E+00
   1   17   28     3     7    1.1662E+06 -3.6085E+04   1.2022E+06  0.000E+00  0.000E+00  0.000E+00  3.27511E+01  5.289E-01  2.000E+01  2.000E+04 -1.804E+00
   1   18   29     3     8    1.2022E+06 -4.7095E+04   1.2493E+06  0.000E+00  0.000E+00  0.000E+00  3.18733E+01  5.399E-01  2.000E+01  2.000E+04 -2.355E+00
   1   18   30     3     9    1.2493E+06 -4.3552E+04   1.2929E+06  0.000E+00  0.000E+00  0.000E+00  3.09963E+01  5.518E-01  2.000E+01  2.000E+04 -2.178E+00



1
              HEAD IN LAYER   1 AT END OF TIME STEP   1 IN STRESS PERIOD   11
  ---------------------------------------------------------------------------

          1      2      3      4      5      6      7      8      9     10
         11     12     13     14     15     16     17     18     19     20
         21     22     23     24     25     26     27     28     29     30
 .........................................................................
   1  ****** ****** ****** ****** ****** ****** ****** ****** ****** ******
      ****** ****** ****** ****** ****** ****** ****** ****** ****** ******
      ****** ****** ****** ****** ****** ****** ****** ****** ****** ******
   2  ****** ****** ****** ****** ****** ****** ****** ****** ****** ******
      ****** ****** ****** ****** ****** ****** ****** ****** ****** ******
      ****** ****** ****** ****** ****** ****** ****** ****** ****** ******
   3  ****** ****** ****** ****** ****** ****** ****** ****** ****** ******
      ****** ****** ****** ****** ****** ****** ****** ****** ****** ******
      ****** ****** ****** ****** ****** ****** ****** ****** ****** ******
   4  ****** ****** ****** ****** ****** ****** ****** ****** ****** ******
      ****** ****** ****** ****** ****** ****** ****** ****** ****** ******
      ****** ****** ****** ****** ****** ****** ****** ****** ****** ******
   5  ****** ****** ****** ****** ****** ****** ****** ****** ****** ******
      ****** ****** ****** ****** ****** ****** ****** ****** ****** ******
      ****** ****** ****** ****** ****** ****** ****** ****** ****** ******
   6  ****** ****** ****** ****** ****** ****** ****** ****** ****** ******
      ****** ****** ****** ****** ****** ****** ****** ****** ****** ******
      ****** ****** ****** ****** ****** ****** ****** ****** ****** ******
   7  ****** ****** ****** ****** ****** ****** ****** ****** ****** ******
      ****** ****** ****** ****** ****** ****** ****** ****** ****** ******
      ****** ****** ****** ****** ****** ****** ****** ****** ****** ******
   8  ****** ****** ****** ****** ****** ****** ****** ****** ****** ******
      ****** ****** ****** ****** ****** ****** ****** ****** ****** ******
      ****** ****** ****** ****** ****** ****** ****** ****** ****** ******
   9  ****** ****** ****** ****** ****** ****** ****** ****** ****** ******
      ****** ****** ****** ****** ****** ****** ****** ****** ****** ******
      ****** ****** ****** ****** ****** ****** ****** ****** ****** ******
  10  ****** ****** ****** ****** ****** ****** ****** ****** ****** ******
      ****** ****** ****** ****** ****** ****** ****** ****** ****** ******
      ****** ****** ****** ****** ****** ****** ****** ****** ****** ******
  11  ****** ****** ****** ****** ****** ****** ****** ****** ****** ******
      ****** ****** ****** ****** ****** ****** ****** ****** ****** ******
      ****** ****** ****** ****** ****** ****** ****** ****** ****** ******
  12  ****** ****** ****** ****** ****** ****** ****** ****** ****** ******
      ****** ****** ****** ****** ****** ****** ****** ****** ****** ******
      ****** ****** ****** ****** ****** ****** ****** ****** ****** ******
  13  ****** ****** ****** ****** ****** ****** ****** ****** ****** ******
      ****** ****** ****** ****** ****** ****** ****** ****** ****** ******
      ****** ****** ****** ****** ****** ****** ****** ****** ****** ******
  14  ****** ****** ****** ****** ****** ****** ****** ****** ****** ******
      ****** ****** ****** ****** ****** ****** ****** ****** ****** ******
      ****** ****** ****** ****** ****** ****** ****** ****** ****** ******
  15  ****** ****** ****** ****** ****** ****** ****** ****** ****** ******
      ****** ****** ****** ****** ****** ****** ****** ****** ****** ******
      ****** ****** ****** ****** ****** ****** ****** ****** ****** ******
  16  ****** ****** ****** ****** ****** ****** ****** ****** ****** ******
      ****** ****** ****** ****** ****** ****** ****** ****** ****** ******
      ****** ****** ****** ****** ****** ****** ****** ****** ****** ******
  17  ****** ****** ****** ****** ****** ****** ****** ****** ****** ******
      ****** ****** ****** ****** ****** ****** ****** ****** ****** ******
      ****** ****** ****** ****** ****** ****** ****** ****** ****** ******
  18  ****** ****** ****** ****** ****** ****** ****** ****** ****** ******
      ****** ****** ****** ****** ****** ****** ****** ****** ****** ******
      ****** ****** ****** ****** ****** ****** ****** ****** ****** ******
  19  ****** ****** ****** ****** ****** ****** ****** ****** ****** ******
      ****** ****** ****** ****** ****** ****** ****** ****** ****** ******
      ****** ****** ****** ****** ****** ****** ****** ****** ****** ******
  20  ****** ****** ****** ****** ****** ****** ****** ****** ****** ******
      ****** ****** ****** ****** ****** ****** ****** ****** ****** ******
      ****** ****** ****** ****** ****** ****** ****** ****** ****** ******
  21  ****** ****** ****** ****** ****** ****** ****** ****** ****** ******
      ****** ****** ****** ****** ****** ****** ****** ****** ****** ******
      ****** ****** ****** ****** ****** ****** ****** ****** ****** ******
  22  ****** ****** ****** ****** ****** ****** ****** ****** ****** ******
      ****** ****** ****** ****** ****** ****** ****** ****** ****** ******
      ****** ****** ****** ****** ****** ****** ****** ****** ****** ******
  23  ****** ****** ****** ****** ****** ****** ****** ****** ****** ******
      ****** ****** ****** ****** ****** ****** ****** ****** ****** ******
      ****** ****** ****** ****** ****** ****** ****** ****** ****** ******
  24  ****** ****** ****** ****** ****** ****** ****** ****** ****** ******
      ****** ****** ****** ****** ****** ****** ****** ****** ****** ******
      ****** ****** ****** ****** ****** ****** ****** ****** ****** ******
  25  ****** ****** ****** ****** ****** ****** ****** ****** ****** ******
      ****** ****** ****** ****** ****** ****** ****** ****** ****** ******
      ****** ****** ****** ****** ****** ****** ****** ****** ****** ******

 HEAD WILL BE SAVED ON UNIT   51 AT END OF TIME STEP    1, STRESS PERIOD   11
1
  VOLUMETRIC BUDGET FOR ENTIRE MODEL AT END OF TIME STEP    1, STRESS PERIOD  11
  ------------------------------------------------------------------------------

     CUMULATIVE VOLUMES      L**3       RATES FOR THIS TIME STEP      L**3/T
     ------------------                 ------------------------

           IN:                                      IN:
           ---                                      ---
             STORAGE =    20853692.0570               STORAGE =        2308.7282
       CONSTANT HEAD =  1210924487.8890         CONSTANT HEAD =     1220588.5439
               WELLS =           0.0000                 WELLS =           0.0000
            RECHARGE =    23901600.0000              RECHARGE =           0.0000
      STREAM LEAKAGE =           0.0000        STREAM LEAKAGE =           0.0000

            TOTAL IN =  1255679779.9460              TOTAL IN =     1222897.2721

          OUT:                                     OUT:
          ----                                     ----
             STORAGE =      528392.2224               STORAGE =          12.5682
       CONSTANT HEAD =           0.0000         CONSTANT HEAD =           0.0000
               WELLS =    81685136.5000                 WELLS =       80000.0000
            RECHARGE =           0.0000              RECHARGE =           0.0000
      STREAM LEAKAGE =  1173466260.7196        STREAM LEAKAGE =     1142884.7475

           TOTAL OUT =  1255679789.4420             TOTAL OUT =     1222897.3157

            IN - OUT =          -9.4960              IN - OUT =      -4.3658E-02

 PERCENT DISCREPANCY =          -0.00     PERCENT DISCREPANCY =          -0.00






         TIME SUMMARY AT END OF TIME STEP    1 IN STRESS PERIOD   11
                    SECONDS     MINUTES      HOURS       DAYS        YEARS
                    -----------------------------------------------------------
   TIME STEP LENGTH 7.86240E+06 1.31040E+05  2184.0      91.000     0.24914    
 STRESS PERIOD TIME 7.86240E+06 1.31040E+05  2184.0      91.000     0.24914    
         TOTAL TIME 8.67456E+07 1.44576E+06  24096.      1004.0      2.7488    
1
1
                            STRESS PERIOD NO.   12, LENGTH =   91.00000    
                            -----------------------------------------------

                              NUMBER OF TIME STEPS =     1

                               MULTIPLIER FOR DELT =     1.500

                            INITIAL TIME STEP SIZE =   91.00000    

 WELL NO.  LAYER   ROW   COL   STRESS RATE         
 --------------------------------------------------
      1      1      5      8     -0.5000E+05
      2      1      3      6     -0.3000E+05
      3      1      3      9       0.000    

      3 WELLS

                 RECHARGE =  1.000000E-03

 REUSING STREAM SEGMENT DATA FROM LAST STRESS PERIOD
 
 SOLVING FOR HEAD 


     6 CALLS TO PCG ROUTINE FOR TIME STEP   1 IN STRESS PERIOD   12
    22 TOTAL ITERATIONS

 OUTPUT CONTROL FOR STRESS PERIOD   12   TIME STEP    1
    SAVE BUDGET
    SAVE HEAD FOR ALL LAYERS
    PRINT HEAD FOR ALL LAYERS
 UBDSV2 SAVING "STREAMFLOW OUT  " ON UNIT  50 AT TIME STEP  1, STRESS PERIOD  12



 STREAM LISTING     PERIOD     12   STEP        1

 LAYER ROW COL. STREAM  RCH.  FLOW INTO     FLOW TO   FLOW OUT OF   OVRLND.     DIRECT     STREAM       STREAM     STREAM     STREAM   STREAMBED  STREAMBED
                SEG.NO.  NO.  STRM. RCH.    AQUIFER    STRM. RCH.    RUNOFF     PRECIP       ET          HEAD       DEPTH      WIDTH   CONDCTNC.   GRADIENT

   1   13    1     1     1    1.0000E+05 -2.6172E+04   1.2617E+05  0.000E+00  0.000E+00  0.000E+00  4.84171E+01  1.557E-01  2.000E+01  2.000E+04 -1.309E+00
   1   13    2     1     2    1.2617E+05 -3.5390E+04   1.6156E+05  0.000E+00  0.000E+00  0.000E+00  4.79640E+01  1.799E-01  2.000E+01  2.000E+04 -1.769E+00
   1   14    3     1     3    1.6156E+05 -3.1508E+04   1.9307E+05  0.000E+00  0.000E+00  0.000E+00  4.75108E+01  2.040E-01  2.000E+01  2.000E+04 -1.575E+00
   1   15    4     1     4    1.9307E+05 -3.1203E+04   2.2427E+05  0.000E+00  0.000E+00  0.000E+00  4.70545E+01  2.249E-01  2.000E+01  2.000E+04 -1.560E+00
   1   16    5     1     5    2.2427E+05 -3.3240E+04   2.5751E+05  0.000E+00  0.000E+00  0.000E+00  4.65974E+01  2.451E-01  2.000E+01  2.000E+04 -1.662E+00
   1   16    6     1     6    2.5751E+05 -2.8895E+04   2.8641E+05  0.000E+00  0.000E+00  0.000E+00  4.61386E+01  2.636E-01  2.000E+01  2.000E+04 -1.445E+00
   1   16    7     1     7    2.8641E+05 -2.8670E+04   3.1508E+05  0.000E+00  0.000E+00  0.000E+00  4.56778E+01  2.801E-01  2.000E+01  2.000E+04 -1.434E+00
   1   16    8     1     8    3.1508E+05 -2.8854E+04   3.4393E+05  0.000E+00  0.000E+00  0.000E+00  4.52163E+01  2.958E-01  2.000E+01  2.000E+04 -1.443E+00
   1   16    9     1     9    3.4393E+05 -2.8979E+04   3.7291E+05  0.000E+00  0.000E+00  0.000E+00  4.47543E+01  3.111E-01  2.000E+01  2.000E+04 -1.449E+00
   1   16   10     1    10    3.7291E+05 -2.9093E+04   4.0200E+05  0.000E+00  0.000E+00  0.000E+00  4.42919E+01  3.260E-01  2.000E+01  2.000E+04 -1.455E+00
   1   16   11     1    11    4.0200E+05 -2.9825E+04   4.3183E+05  0.000E+00  0.000E+00  0.000E+00  4.38293E+01  3.407E-01  2.000E+01  2.000E+04 -1.491E+00
   1   16   12     1    12    4.3183E+05 -3.5515E+04   4.6734E+05  0.000E+00  0.000E+00  0.000E+00  4.33678E+01  3.565E-01  2.000E+01  2.000E+04 -1.776E+00
   1   15   13     1    13    4.6734E+05 -3.3932E+04   5.0128E+05  0.000E+00  0.000E+00  0.000E+00  4.29068E+01  3.727E-01  2.000E+01  2.000E+04 -1.697E+00
   1   14   14     1    14    5.0128E+05 -3.4350E+04   5.3563E+05  0.000E+00  0.000E+00  0.000E+00  4.24451E+01  3.883E-01  2.000E+01  2.000E+04 -1.717E+00
   1   13   15     1    15    5.3563E+05 -3.6480E+04   5.7211E+05  0.000E+00  0.000E+00  0.000E+00  4.19835E+01  4.040E-01  2.000E+01  2.000E+04 -1.824E+00
   1   12   16     1    16    5.7211E+05 -4.2453E+04   6.1456E+05  0.000E+00  0.000E+00  0.000E+00  4.15233E+01  4.210E-01  2.000E+01  2.000E+04 -2.123E+00
   1   12   17     1    17    6.1456E+05 -3.3498E+04   6.4806E+05  0.000E+00  0.000E+00  0.000E+00  4.10620E+01  4.370E-01  2.000E+01  2.000E+04 -1.675E+00
   1   12   18     1    18    6.4806E+05 -3.2076E+04   6.8013E+05  0.000E+00  0.000E+00  0.000E+00  4.05982E+01  4.505E-01  2.000E+01  2.000E+04 -1.604E+00
   1   12   19     1    19    6.8013E+05 -3.6241E+04   7.1637E+05  0.000E+00  0.000E+00  0.000E+00  4.01347E+01  4.642E-01  2.000E+01  2.000E+04 -1.812E+00
   1   13   20     1    20    7.1637E+05 -2.6760E+04   7.4313E+05  0.000E+00  0.000E+00  0.000E+00  3.96699E+01  4.767E-01  2.000E+01  2.000E+04 -1.338E+00
   1   14   21     1    21    7.4313E+05 -1.9783E+04   7.6292E+05  0.000E+00  0.000E+00  0.000E+00  3.92017E+01  4.857E-01  2.000E+01  2.000E+04 -9.892E-01
   1   14   22     1    22    7.6292E+05 -1.8131E+03   7.6473E+05  0.000E+00  0.000E+00  0.000E+00  3.87286E+01  4.899E-01  2.000E+01  2.000E+04 -9.066E-02
   1    9   30     2     1    5.0000E+04 -2.6610E+04   7.6610E+04  0.000E+00  0.000E+00  0.000E+00  4.02585E+01  1.335E-01  2.000E+01  2.000E+04 -1.331E+00
   1    9   29     2     2    7.6610E+04 -2.9074E+04   1.0568E+05  0.000E+00  0.000E+00  0.000E+00  4.00411E+01  1.661E-01  2.000E+01  2.000E+04 -1.454E+00
   1    9   28     2     3    1.0568E+05 -3.3354E+04   1.3904E+05  0.000E+00  0.000E+00  0.000E+00  3.98232E+01  1.982E-01  2.000E+01  2.000E+04 -1.668E+00
   1    9   27     2     4    1.3904E+05 -4.7463E+04   1.8650E+05  0.000E+00  0.000E+00  0.000E+00  3.96102E+01  2.352E-01  2.000E+01  2.000E+04 -2.373E+00
   1   10   26     2     5    1.8650E+05 -3.3433E+04   2.1993E+05  0.000E+00  0.000E+00  0.000E+00  3.93938E+01  2.688E-01  2.000E+01  2.000E+04 -1.672E+00
   1   11   25     2     6    2.1993E+05 -2.5079E+04   2.4501E+05  0.000E+00  0.000E+00  0.000E+00  3.91663E+01  2.913E-01  2.000E+01  2.000E+04 -1.254E+00
   1   12   24     2     7    2.4501E+05 -1.8508E+04   2.6352E+05  0.000E+00  0.000E+00  0.000E+00  3.89324E+01  3.074E-01  2.000E+01  2.000E+04 -9.254E-01
   1   13   23     2     8    2.6352E+05 -1.3164E+04   2.7668E+05  0.000E+00  0.000E+00  0.000E+00  3.86938E+01  3.188E-01  2.000E+01  2.000E+04 -6.582E-01
   1   14   22     2     9    2.7668E+05 -7.3643E+03   2.8405E+05  0.000E+00  0.000E+00  0.000E+00  3.84510E+01  3.260E-01  2.000E+01  2.000E+04 -3.682E-01
   1   14   22     3     1    1.0488E+06 -1.5396E+04   1.0642E+06  0.000E+00  0.000E+00  0.000E+00  3.80494E+01  4.939E-01  2.000E+01  2.000E+04 -7.698E-01
   1   15   23     3     2    1.0642E+06 -2.3800E+04   1.0880E+06  0.000E+00  0.000E+00  0.000E+00  3.71660E+01  4.994E-01  2.000E+01  2.000E+04 -1.190E+00
   1   15   24     3     3    1.0880E+06 -1.9813E+04   1.1078E+06  0.000E+00  0.000E+00  0.000E+00  3.62832E+01  5.054E-01  2.000E+01  2.000E+04 -9.907E-01
   1   15   25     3     4    1.1078E+06 -1.9407E+04   1.1272E+06  0.000E+00  0.000E+00  0.000E+00  3.53997E+01  5.108E-01  2.000E+01  2.000E+04 -9.703E-01
   1   15   26     3     5    1.1272E+06 -2.2171E+04   1.1494E+06  0.000E+00  0.000E+00  0.000E+00  3.45165E+01  5.165E-01  2.000E+01  2.000E+04 -1.109E+00
   1   16   27     3     6    1.1494E+06 -2.9365E+04   1.1787E+06  0.000E+00  0.000E+00  0.000E+00  3.36346E+01  5.235E-01  2.000E+01  2.000E+04 -1.468E+00
   1   17   28     3     7    1.1787E+06 -3.6430E+04   1.2152E+06  0.000E+00  0.000E+00  0.000E+00  3.27545E+01  5.323E-01  2.000E+01  2.000E+04 -1.821E+00
   1   18   29     3     8    1.2152E+06 -4.7418E+04   1.2626E+06  0.000E+00  0.000E+00  0.000E+00  3.18767E+01  5.434E-01  2.000E+01  2.000E+04 -2.371E+00
   1   18   30     3     9    1.2626E+06 -4.3822E+04   1.3064E+06  0.000E+00  0.000E+00  0.000E+00  3.09998E+01  5.553E-01  2.000E+01  2.000E+04 -2.191E+00



1
              HEAD IN LAYER   1 AT END OF TIME STEP   1 IN STRESS PERIOD   12
  ---------------------------------------------------------------------------

          1      2      3      4      5      6      7      8      9     10
         11     12     13     14     15     16     17     18     19     20
         21     22     23     24     25     26     27     28     29     30
 .........................................................................
   1  ****** ****** ****** ****** ****** ****** ****** ****** ****** ******
      ****** ****** ****** ****** ****** ****** ****** ****** ****** ******
      ****** ****** ****** ****** ****** ****** ****** ****** ****** ******
   2  ****** ****** ****** ****** ****** ****** ****** ****** ****** ******
      ****** ****** ****** ****** ****** ****** ****** ****** ****** ******
      ****** ****** ****** ****** ****** ****** ****** ****** ****** ******
   3  ****** ****** ****** ****** ****** ****** ****** ****** ****** ******
      ****** ****** ****** ****** ****** ****** ****** ****** ****** ******
      ****** ****** ****** ****** ****** ****** ****** ****** ****** ******
   4  ****** ****** ****** ****** ****** ****** ****** ****** ****** ******
      ****** ****** ****** ****** ****** ****** ****** ****** ****** ******
      ****** ****** ****** ****** ****** ****** ****** ****** ****** ******
   5  ****** ****** ****** ****** ****** ****** ****** ****** ****** ******
      ****** ****** ****** ****** ****** ****** ****** ****** ****** ******
      ****** ****** ****** ****** ****** ****** ****** ****** ****** ******
   6  ****** ****** ****** ****** ****** ****** ****** ****** ****** ******
      ****** ****** ****** ****** ****** ****** ****** ****** ****** ******
      ****** ****** ****** ****** ****** ****** ****** ****** ****** ******
   7  ****** ****** ****** ****** ****** ****** ****** ****** ****** ******
      ****** ****** ****** ****** ****** ****** ****** ****** ****** ******
      ****** ****** ****** ****** ****** ****** ****** ****** ****** ******
   8  ****** ****** ****** ****** ****** ****** ****** ****** ****** ******
      ****** ****** ****** ****** ****** ****** ****** ****** ****** ******
      ****** ****** ****** ****** ****** ****** ****** ****** ****** ******
   9  ****** ****** ****** ****** ****** ****** ****** ****** ****** ******
      ****** ****** ****** ****** ****** ****** ****** ****** ****** ******
      ****** ****** ****** ****** ****** ****** ****** ****** ****** ******
  10  ****** ****** ****** ****** ****** ****** ****** ****** ****** ******
      ****** ****** ****** ****** ****** ****** ****** ****** ****** ******
      ****** ****** ****** ****** ****** ****** ****** ****** ****** ******
  11  ****** ****** ****** ****** ****** ****** ****** ****** ****** ******
      ****** ****** ****** ****** ****** ****** ****** ****** ****** ******
      ****** ****** ****** ****** ****** ****** ****** ****** ****** ******
  12  ****** ****** ****** ****** ****** ****** ****** ****** ****** ******
      ****** ****** ****** ****** ****** ****** ****** ****** ****** ******
      ****** ****** ****** ****** ****** ****** ****** ****** ****** ******
  13  ****** ****** ****** ****** ****** ****** ****** ****** ****** ******
      ****** ****** ****** ****** ****** ****** ****** ****** ****** ******
      ****** ****** ****** ****** ****** ****** ****** ****** ****** ******
  14  ****** ****** ****** ****** ****** ****** ****** ****** ****** ******
      ****** ****** ****** ****** ****** ****** ****** ****** ****** ******
      ****** ****** ****** ****** ****** ****** ****** ****** ****** ******
  15  ****** ****** ****** ****** ****** ****** ****** ****** ****** ******
      ****** ****** ****** ****** ****** ****** ****** ****** ****** ******
      ****** ****** ****** ****** ****** ****** ****** ****** ****** ******
  16  ****** ****** ****** ****** ****** ****** ****** ****** ****** ******
      ****** ****** ****** ****** ****** ****** ****** ****** ****** ******
      ****** ****** ****** ****** ****** ****** ****** ****** ****** ******
  17  ****** ****** ****** ****** ****** ****** ****** ****** ****** ******
      ****** ****** ****** ****** ****** ****** ****** ****** ****** ******
      ****** ****** ****** ****** ****** ****** ****** ****** ****** ******
  18  ****** ****** ****** ****** ****** ****** ****** ****** ****** ******
      ****** ****** ****** ****** ****** ****** ****** ****** ****** ******
      ****** ****** ****** ****** ****** ****** ****** ****** ****** ******
  19  ****** ****** ****** ****** ****** ****** ****** ****** ****** ******
      ****** ****** ****** ****** ****** ****** ****** ****** ****** ******
      ****** ****** ****** ****** ****** ****** ****** ****** ****** ******
  20  ****** ****** ****** ****** ****** ****** ****** ****** ****** ******
      ****** ****** ****** ****** ****** ****** ****** ****** ****** ******
      ****** ****** ****** ****** ****** ****** ****** ****** ****** ******
  21  ****** ****** ****** ****** ****** ****** ****** ****** ****** ******
      ****** ****** ****** ****** ****** ****** ****** ****** ****** ******
      ****** ****** ****** ****** ****** ****** ****** ****** ****** ******
  22  ****** ****** ****** ****** ****** ****** ****** ****** ****** ******
      ****** ****** ****** ****** ****** ****** ****** ****** ****** ******
      ****** ****** ****** ****** ****** ****** ****** ****** ****** ******
  23  ****** ****** ****** ****** ****** ****** ****** ****** ****** ******
      ****** ****** ****** ****** ****** ****** ****** ****** ****** ******
      ****** ****** ****** ****** ****** ****** ****** ****** ****** ******
  24  ****** ****** ****** ****** ****** ****** ****** ****** ****** ******
      ****** ****** ****** ****** ****** ****** ****** ****** ****** ******
      ****** ****** ****** ****** ****** ****** ****** ****** ****** ******
  25  ****** ****** ****** ****** ****** ****** ****** ****** ****** ******
      ****** ****** ****** ****** ****** ****** ****** ****** ****** ******
      ****** ****** ****** ****** ****** ****** ****** ****** ****** ******

 HEAD WILL BE SAVED ON UNIT   51 AT END OF TIME STEP    1, STRESS PERIOD   12
1
  VOLUMETRIC BUDGET FOR ENTIRE MODEL AT END OF TIME STEP    1, STRESS PERIOD  12
  ------------------------------------------------------------------------------

     CUMULATIVE VOLUMES      L**3       RATES FOR THIS TIME STEP      L**3/T
     ------------------                 ------------------------

           IN:                                      IN:
           ---                                      ---
             STORAGE =    20853692.0570               STORAGE =           0.0000
       CONSTANT HEAD =  1321032921.3267         CONSTANT HEAD =     1209982.7850
               WELLS =           0.0000                 WELLS =           0.0000
            RECHARGE =    26413200.0000              RECHARGE =       27600.0000
      STREAM LEAKAGE =           0.0000        STREAM LEAKAGE =           0.0000

            TOTAL IN =  1368299813.3837              TOTAL IN =     1237582.7850

          OUT:                                     OUT:
          ----                                     ----
             STORAGE =      636115.5959               STORAGE =        1183.7733
       CONSTANT HEAD =           0.0000         CONSTANT HEAD =           0.0000
               WELLS =    88965136.5000                 WELLS =       80000.0000
            RECHARGE =           0.0000              RECHARGE =           0.0000
      STREAM LEAKAGE =  1278698568.8723        STREAM LEAKAGE =     1156398.9907

           TOTAL OUT =  1368299820.9682             TOTAL OUT =     1237582.7640

            IN - OUT =          -7.5846              IN - OUT =       2.1004E-02

 PERCENT DISCREPANCY =          -0.00     PERCENT DISCREPANCY =           0.00






         TIME SUMMARY AT END OF TIME STEP    1 IN STRESS PERIOD   12
                    SECONDS     MINUTES      HOURS       DAYS        YEARS
                    -----------------------------------------------------------
   TIME STEP LENGTH 7.86240E+06 1.31040E+05  2184.0      91.000     0.24914    
 STRESS PERIOD TIME 7.86240E+06 1.31040E+05  2184.0      91.000     0.24914    
         TOTAL TIME 9.46080E+07 1.57680E+06  26280.      1095.0      2.9979    
1

 Run end date and time (yyyy/mm/dd hh:mm:ss): 2018/09/30 20:52:11
 Elapsed run time:  0.070 Seconds

