                                  MODFLOW-2005     
      U.S. GEOLOGICAL SURVEY MODULAR FINITE-DIFFERENCE GROUND-WATER FLOW MODEL
                            VERSION 1.11.00 8/8/2013

 LIST FILE: supply2.lst
                         UNIT   10

 OPENING ..\data\supply.dis
 FILE TYPE:DIS   UNIT   11   STATUS:OLD    
 FORMAT:FORMATTED              ACCESS:SEQUENTIAL          

 OPENING ..\data\supply.ba6
 FILE TYPE:BAS6   UNIT   12   STATUS:OLD    
 FORMAT:FORMATTED              ACCESS:SEQUENTIAL          

 OPENING ..\data\supply.bc6
 FILE TYPE:BCF6   UNIT   13   STATUS:OLD    
 FORMAT:FORMATTED              ACCESS:SEQUENTIAL          

 OPENING ..\data\supply.rch
 FILE TYPE:RCH   UNIT   15   STATUS:OLD    
 FORMAT:FORMATTED              ACCESS:SEQUENTIAL          

 OPENING ..\data\supply2.sfr
 FILE TYPE:SFR   UNIT   16   STATUS:OLD    
 FORMAT:FORMATTED              ACCESS:SEQUENTIAL          

 OPENING ..\data\supply.oc
 FILE TYPE:OC   UNIT   17   STATUS:OLD    
 FORMAT:FORMATTED              ACCESS:SEQUENTIAL          

 OPENING ..\data\supply.pcg
 FILE TYPE:PCG   UNIT   18   STATUS:OLD    
 FORMAT:FORMATTED              ACCESS:SEQUENTIAL          

 OPENING supply2.wel
 FILE TYPE:WEL   UNIT   19   STATUS:OLD    
 FORMAT:FORMATTED              ACCESS:SEQUENTIAL          

 OPENING supply2sf.bin
 FILE TYPE:DATA(BINARY)   UNIT   50   STATUS:UNKNOWN
 FORMAT:BINARY                 ACCESS:SEQUENTIAL          

 OPENING supply2hd.bin
 FILE TYPE:DATA(BINARY)   UNIT   51   STATUS:UNKNOWN
 FORMAT:BINARY                 ACCESS:SEQUENTIAL          

 BAS -- BASIC PACKAGE, VERSION 7, 5/2/2005 INPUT READ FROM UNIT   12
 
 MODFLOW was compiled using uniform precision
 Precision of REAL and DOUBLE PRECISION variables:          15

 DISCRETIZATION INPUT DATA READ FROM UNIT   11
    1 LAYERS        25 ROWS        30 COLUMNS
   12 STRESS PERIOD(S) IN SIMULATION
 MODEL TIME UNIT IS DAYS
 MODEL LENGTH UNIT IS UNDEFINED
  Confining bed flag for each layer:
   0

                     DELR =   200.000    

                     DELC =   200.000    

 TOP ELEVATION OF LAYER 1 =  100.0000    

   MODEL LAYER BOTTOM EL. =   0.00000     FOR LAYER   1


 STRESS PERIOD     LENGTH       TIME STEPS     MULTIPLIER FOR DELT    SS FLAG
 ----------------------------------------------------------------------------
        1         92.00000          1                    1.500         TR
        2         91.00000          1                    1.500         TR
        3         91.00000          1                    1.500         TR
        4         91.00000          1                    1.500         TR
        5         92.00000          1                    1.500         TR
        6         91.00000          1                    1.500         TR
        7         91.00000          1                    1.500         TR
        8         91.00000          1                    1.500         TR
        9         92.00000          1                    1.500         TR
       10         91.00000          1                    1.500         TR
       11         91.00000          1                    1.500         TR
       12         91.00000          1                    1.500         TR

 TRANSIENT SIMULATION



 
 #MODOFC transient water supply sample problem                                   
 #                                                                               
 THE FREE FORMAT OPTION HAS BEEN SELECTED



                     BOUNDARY ARRAY FOR LAYER   1
 READING ON UNIT   12 WITH FORMAT: (20I4)              

 AQUIFER HEAD WILL BE SET TO   0.0000     AT ALL NO-FLOW NODES (IBOUND=0).



                       INITIAL HEAD FOR LAYER   1
 READING ON UNIT   12 WITH FORMAT: (10F13.0)           

 OUTPUT CONTROL IS SPECIFIED ONLY AT TIME STEPS FOR WHICH OUTPUT IS DESIRED
 COMPACT CELL-BY-CELL BUDGET FILES WILL BE WRITTEN
 HEAD PRINT FORMAT CODE IS  18    DRAWDOWN PRINT FORMAT CODE IS   0
 HEADS WILL BE SAVED ON UNIT   51    DRAWDOWNS WILL BE SAVED ON UNIT    0

 BCF -- BLOCK-CENTERED FLOW PACKAGE, VERSION 7, 5/2/2005
         INPUT READ FROM UNIT 13
 TRANSIENT SIMULATION
 HEAD AT CELLS THAT CONVERT TO DRY=   0.0000    
 WETTING CAPABILITY IS NOT ACTIVE
      LAYER  LAYER-TYPE CODE     INTERBLOCK T
      --------------------------------------------
         1            0          0 -- HARMONIC    

 COLUMN TO ROW ANISOTROPY =  1.000000    

     PRIMARY STORAGE COEF =  5.000000E-02 FOR LAYER   1

     TRANSMIS. ALONG ROWS =   5000.00     FOR LAYER   1

 WEL -- WELL PACKAGE, VERSION 7, 5/2/2005 INPUT READ FROM UNIT   19
 # Well package input file written by MMProc
 No named parameters
 MAXIMUM OF      7 ACTIVE WELLS AT ONE TIME


     0 Well parameters

 RCH -- RECHARGE PACKAGE, VERSION 7, 5/2/2005 INPUT READ FROM UNIT   15
 No named parameters
 OPTION 1 -- RECHARGE TO TOP LAYER


     0 Recharge parameters

 SFR7 -- STREAMFLOW ROUTING PACKAGE, VERSION 1.0.7, 2013-01-15
         INPUT READ FROM UNIT  16
 #  Supply2 test problem for GWM-VI
 #  The eighth entry in the first data line is ISTCB2 -
 #    Setting this to a negative number indicates that
 #    streamflows out of the reach will be saved to a
 #    binary file.  The absolute value of ISTCB2 is the
 #    unit to which unformatted flows will be written.
 #
 No named parameters
 Segment information will not be 
 read by reach
 No named parameters
 No specifed inflow files


 NUMBER OF STREAM REACHES IS   40

 NUMBER OF STREAM SEGMENTS IS    3

 NUMBER OF STREAM PARAMETERS IS    0

 NUMBER OF STREAM SEGMENTS DEFINED USING PARAMETERS IS              0

 MAXIMUM ERROR FOR STREAM LEAKAGE RATES IS  1.00E-04

 CONSTANT FOR MANNINGS EQUATION IS  1.2839E+05





   STREAM NETWORK DESCRIPTION: 

   LAYER    ROW    COL   SEGMENT   REACH     LENGTH
                          NUMBER   NUMBER    IN CELL        
   --------------------------------------------------
      1     13      1       1        1    2.0000E+02
      1     13      2       1        2    2.0000E+02
      1     14      3       1        3    2.0000E+02
      1     15      4       1        4    2.0000E+02
      1     16      5       1        5    2.0000E+02
      1     16      6       1        6    2.0000E+02
      1     16      7       1        7    2.0000E+02
      1     16      8       1        8    2.0000E+02
      1     16      9       1        9    2.0000E+02
      1     16     10       1       10    2.0000E+02
      1     16     11       1       11    2.0000E+02
      1     16     12       1       12    2.0000E+02
      1     15     13       1       13    2.0000E+02
      1     14     14       1       14    2.0000E+02
      1     13     15       1       15    2.0000E+02
      1     12     16       1       16    2.0000E+02
      1     12     17       1       17    2.0000E+02
      1     12     18       1       18    2.0000E+02
      1     12     19       1       19    2.0000E+02
      1     13     20       1       20    2.0000E+02
      1     14     21       1       21    2.0000E+02
      1     14     22       1       22    2.0000E+02
      1      9     30       2        1    2.0000E+02
      1      9     29       2        2    2.0000E+02
      1      9     28       2        3    2.0000E+02
      1      9     27       2        4    2.0000E+02
      1     10     26       2        5    2.0000E+02
      1     11     25       2        6    2.0000E+02
      1     12     24       2        7    2.0000E+02
      1     13     23       2        8    2.0000E+02
      1     14     22       2        9    2.0000E+02
      1     14     22       3        1    2.0000E+02
      1     15     23       3        2    2.0000E+02
      1     15     24       3        3    2.0000E+02
      1     15     25       3        4    2.0000E+02
      1     15     26       3        5    2.0000E+02
      1     16     27       3        6    2.0000E+02
      1     17     28       3        7    2.0000E+02
      1     18     29       3        8    2.0000E+02
      1     18     30       3        9    2.0000E+02




 PCG -- CONJUGATE-GRADIENT SOLUTION PACKAGE, VERSION 7, 5/2/2005
 MAXIMUM OF    500 CALLS OF SOLUTION ROUTINE
 MAXIMUM OF      5 INTERNAL ITERATIONS PER CALL TO SOLUTION ROUTINE
 MATRIX PRECONDITIONING TYPE :    1



                                    SOLUTION BY THE CONJUGATE-GRADIENT METHOD
                                   -------------------------------------------
                    MAXIMUM NUMBER OF CALLS TO PCG ROUTINE =      500
                        MAXIMUM ITERATIONS PER CALL TO PCG =        5
                               MATRIX PRECONDITIONING TYPE =        1
        RELAXATION FACTOR (ONLY USED WITH PRECOND. TYPE 1) =    0.10000E+01
 PARAMETER OF POLYNOMIAL PRECOND. = 2 (2) OR IS CALCULATED :        0
                         HEAD CHANGE CRITERION FOR CLOSURE =    0.10000E-05
                     RESIDUAL CHANGE CRITERION FOR CLOSURE =    0.10000E+01
            PCG HEAD AND RESIDUAL CHANGE PRINTOUT INTERVAL =        1
     PRINTING FROM SOLVER IS LIMITED(1) OR SUPPRESSED (>1) =        1
                            STEADY-STATE DAMPING PARAMETER =    0.10000E+01
                               TRANSIENT DAMPING PARAMETER =    0.10000E+01
1
                            STRESS PERIOD NO.    1, LENGTH =   92.00000    
                            -----------------------------------------------

                              NUMBER OF TIME STEPS =     1

                               MULTIPLIER FOR DELT =     1.500

                            INITIAL TIME STEP SIZE =   92.00000    

 WELL NO.  LAYER   ROW   COL   STRESS RATE         
 --------------------------------------------------
      1      1      8     16     -0.3000E+05
      2      1     21     24     -0.5000E+05

      2 WELLS

                 RECHARGE =  5.000000E-04



 CLASSIFICATION & COUNT OF STREAM SEGMENTS BASED ON SOURCE OF INFLOW:

                HEADWATER     DIVERSION     RECEIVES TRIBUTARY FLOW
                ---------     ---------     -----------------------
                     2              0               1



                    INPUT DATA FOR EACH STREAM SEGMENT
 ---------------------------------------------------------------------------------------------

 SEGMENT    SEG.     INFLOW   OVERLAND   STREAM    STREAM   ICALC  OUTFLOW  DIVERSION PRIORITY
    NO.    LENGTH     RATE     RUNOFF      ET       PPT.    METH.  TO SEG.  FROM SEG.    NO.

      1  4.400E+03 1.000E+05 0.000E+00 0.000E+00 0.000E+00    1        3        0        0
      2  1.800E+03 5.000E+04 0.000E+00 0.000E+00 0.000E+00    1        3        0        0
      3  1.800E+03 0.000E+00 0.000E+00 0.000E+00 0.000E+00    1        0        0        0


         STREAMBED PROPERTIES AND STREAM DIMENSIONS

 SEGMENT     BED HYD. COND.      BED THICKNESS     ELEV.-TOP OF BED     WIDTH OF STREAM     DEPTH OF STREAM    STREAM ROUGHNESS
    No.     UPPER     LOWER     UPPER     LOWER     UPPER     LOWER     UPPER     LOWER     UPPER     LOWER   CHANNEL      BANK

     1  5.000E+00 5.000E+00 1.000E+00 1.000E+00 4.850E+01 3.800E+01 2.000E+01 2.000E+01                     5.000E-02
     2  5.000E+00 5.000E+00 1.000E+00 1.000E+00 4.025E+01 3.800E+01 2.000E+01 2.000E+01                     5.000E-02
     3  5.000E+00 5.000E+00 1.000E+00 1.000E+00 3.800E+01 3.000E+01 2.000E+01 2.000E+01                     5.000E-02



 
 SOLVING FOR HEAD 


     8 CALLS TO PCG ROUTINE FOR TIME STEP   1 IN STRESS PERIOD    1
    32 TOTAL ITERATIONS

 OUTPUT CONTROL FOR STRESS PERIOD    1   TIME STEP    1
    SAVE BUDGET
    SAVE HEAD FOR ALL LAYERS
    PRINT HEAD FOR ALL LAYERS
 UBDSV2 SAVING "STREAMFLOW OUT  " ON UNIT  50 AT TIME STEP  1, STRESS PERIOD   1



 STREAM LISTING     PERIOD      1   STEP        1

 LAYER ROW COL. STREAM  RCH.  FLOW INTO     FLOW TO   FLOW OUT OF   OVRLND.     DIRECT     STREAM       STREAM     STREAM     STREAM   STREAMBED  STREAMBED
                SEG.NO.  NO.  STRM. RCH.    AQUIFER    STRM. RCH.    RUNOFF     PRECIP       ET          HEAD       DEPTH      WIDTH   CONDCTNC.   GRADIENT

   1   13    1     1     1    1.0000E+05 -3.1547E+04   1.3155E+05  0.000E+00  0.000E+00  0.000E+00  4.84193E+01  1.579E-01  2.000E+01  2.000E+04 -1.577E+00
   1   13    2     1     2    1.3155E+05 -4.1954E+04   1.7350E+05  0.000E+00  0.000E+00  0.000E+00  4.79704E+01  1.863E-01  2.000E+01  2.000E+04 -2.098E+00
   1   14    3     1     3    1.7350E+05 -3.7517E+04   2.1102E+05  0.000E+00  0.000E+00  0.000E+00  4.75209E+01  2.141E-01  2.000E+01  2.000E+04 -1.876E+00
   1   15    4     1     4    2.1102E+05 -3.6592E+04   2.4761E+05  0.000E+00  0.000E+00  0.000E+00  4.70675E+01  2.380E-01  2.000E+01  2.000E+04 -1.830E+00
   1   16    5     1     5    2.4761E+05 -3.7579E+04   2.8519E+05  0.000E+00  0.000E+00  0.000E+00  4.66127E+01  2.604E-01  2.000E+01  2.000E+04 -1.879E+00
   1   16    6     1     6    2.8519E+05 -3.2827E+04   3.1802E+05  0.000E+00  0.000E+00  0.000E+00  4.61555E+01  2.805E-01  2.000E+01  2.000E+04 -1.641E+00
   1   16    7     1     7    3.1802E+05 -3.2610E+04   3.5063E+05  0.000E+00  0.000E+00  0.000E+00  4.56961E+01  2.984E-01  2.000E+01  2.000E+04 -1.631E+00
   1   16    8     1     8    3.5063E+05 -3.2790E+04   3.8342E+05  0.000E+00  0.000E+00  0.000E+00  4.52361E+01  3.156E-01  2.000E+01  2.000E+04 -1.639E+00
   1   16    9     1     9    3.8342E+05 -3.2851E+04   4.1627E+05  0.000E+00  0.000E+00  0.000E+00  4.47754E+01  3.322E-01  2.000E+01  2.000E+04 -1.643E+00
   1   16   10     1    10    4.1627E+05 -3.2847E+04   4.4911E+05  0.000E+00  0.000E+00  0.000E+00  4.43143E+01  3.484E-01  2.000E+01  2.000E+04 -1.642E+00
   1   16   11     1    11    4.4911E+05 -3.3460E+04   4.8257E+05  0.000E+00  0.000E+00  0.000E+00  4.38528E+01  3.641E-01  2.000E+01  2.000E+04 -1.673E+00
   1   16   12     1    12    4.8257E+05 -3.9421E+04   5.2199E+05  0.000E+00  0.000E+00  0.000E+00  4.33923E+01  3.810E-01  2.000E+01  2.000E+04 -1.971E+00
   1   15   13     1    13    5.2199E+05 -3.8519E+04   5.6051E+05  0.000E+00  0.000E+00  0.000E+00  4.29325E+01  3.984E-01  2.000E+01  2.000E+04 -1.926E+00
   1   14   14     1    14    5.6051E+05 -3.8984E+04   5.9950E+05  0.000E+00  0.000E+00  0.000E+00  4.24721E+01  4.153E-01  2.000E+01  2.000E+04 -1.949E+00
   1   13   15     1    15    5.9950E+05 -4.0606E+04   6.4010E+05  0.000E+00  0.000E+00  0.000E+00  4.20117E+01  4.322E-01  2.000E+01  2.000E+04 -2.030E+00
   1   12   16     1    16    6.4010E+05 -4.5294E+04   6.8540E+05  0.000E+00  0.000E+00  0.000E+00  4.15522E+01  4.499E-01  2.000E+01  2.000E+04 -2.265E+00
   1   12   17     1    17    6.8540E+05 -3.5644E+04   7.2104E+05  0.000E+00  0.000E+00  0.000E+00  4.10912E+01  4.662E-01  2.000E+01  2.000E+04 -1.782E+00
   1   12   18     1    18    7.2104E+05 -3.4240E+04   7.5528E+05  0.000E+00  0.000E+00  0.000E+00  4.06277E+01  4.800E-01  2.000E+01  2.000E+04 -1.712E+00
   1   12   19     1    19    7.5528E+05 -3.8825E+04   7.9411E+05  0.000E+00  0.000E+00  0.000E+00  4.01645E+01  4.941E-01  2.000E+01  2.000E+04 -1.941E+00
   1   13   20     1    20    7.9411E+05 -2.9575E+04   8.2368E+05  0.000E+00  0.000E+00  0.000E+00  3.97002E+01  5.071E-01  2.000E+01  2.000E+04 -1.479E+00
   1   14   21     1    21    8.2368E+05 -2.1904E+04   8.4559E+05  0.000E+00  0.000E+00  0.000E+00  3.92326E+01  5.167E-01  2.000E+01  2.000E+04 -1.095E+00
   1   14   22     1    22    8.4559E+05 -2.5615E+03   8.4815E+05  0.000E+00  0.000E+00  0.000E+00  3.87598E+01  5.212E-01  2.000E+01  2.000E+04 -1.281E-01
   1    9   30     2     1    5.0000E+04 -2.9551E+04   7.9551E+04  0.000E+00  0.000E+00  0.000E+00  4.02603E+01  1.353E-01  2.000E+01  2.000E+04 -1.478E+00
   1    9   29     2     2    7.9551E+04 -3.1977E+04   1.1153E+05  0.000E+00  0.000E+00  0.000E+00  4.00459E+01  1.709E-01  2.000E+01  2.000E+04 -1.599E+00
   1    9   28     2     3    1.1153E+05 -3.6261E+04   1.4779E+05  0.000E+00  0.000E+00  0.000E+00  3.98302E+01  2.052E-01  2.000E+01  2.000E+04 -1.813E+00
   1    9   27     2     4    1.4779E+05 -5.0763E+04   1.9855E+05  0.000E+00  0.000E+00  0.000E+00  3.96192E+01  2.442E-01  2.000E+01  2.000E+04 -2.538E+00
   1   10   26     2     5    1.9855E+05 -3.7089E+04   2.3564E+05  0.000E+00  0.000E+00  0.000E+00  3.94046E+01  2.796E-01  2.000E+01  2.000E+04 -1.854E+00
   1   11   25     2     6    2.3564E+05 -2.8625E+04   2.6427E+05  0.000E+00  0.000E+00  0.000E+00  3.91793E+01  3.043E-01  2.000E+01  2.000E+04 -1.431E+00
   1   12   24     2     7    2.6427E+05 -2.1626E+04   2.8589E+05  0.000E+00  0.000E+00  0.000E+00  3.89473E+01  3.223E-01  2.000E+01  2.000E+04 -1.081E+00
   1   13   23     2     8    2.8589E+05 -1.5579E+04   3.0147E+05  0.000E+00  0.000E+00  0.000E+00  3.87102E+01  3.352E-01  2.000E+01  2.000E+04 -7.790E-01
   1   14   22     2     9    3.0147E+05 -8.3917E+03   3.0986E+05  0.000E+00  0.000E+00  0.000E+00  3.84683E+01  3.433E-01  2.000E+01  2.000E+04 -4.196E-01
   1   14   22     3     1    1.1580E+06 -1.6167E+04   1.1742E+06  0.000E+00  0.000E+00  0.000E+00  3.80796E+01  5.240E-01  2.000E+01  2.000E+04 -8.084E-01
   1   15   23     3     2    1.1742E+06 -2.4885E+04   1.1991E+06  0.000E+00  0.000E+00  0.000E+00  3.71962E+01  5.295E-01  2.000E+01  2.000E+04 -1.244E+00
   1   15   24     3     3    1.1991E+06 -2.0834E+04   1.2199E+06  0.000E+00  0.000E+00  0.000E+00  3.63134E+01  5.356E-01  2.000E+01  2.000E+04 -1.042E+00
   1   15   25     3     4    1.2199E+06 -2.0751E+04   1.2406E+06  0.000E+00  0.000E+00  0.000E+00  3.54300E+01  5.411E-01  2.000E+01  2.000E+04 -1.038E+00
   1   15   26     3     5    1.2406E+06 -2.4408E+04   1.2651E+06  0.000E+00  0.000E+00  0.000E+00  3.45471E+01  5.471E-01  2.000E+01  2.000E+04 -1.220E+00
   1   16   27     3     6    1.2651E+06 -3.1346E+04   1.2964E+06  0.000E+00  0.000E+00  0.000E+00  3.36654E+01  5.543E-01  2.000E+01  2.000E+04 -1.567E+00
   1   17   28     3     7    1.2964E+06 -3.8023E+04   1.3344E+06  0.000E+00  0.000E+00  0.000E+00  3.27855E+01  5.633E-01  2.000E+01  2.000E+04 -1.901E+00
   1   18   29     3     8    1.3344E+06 -4.8361E+04   1.3828E+06  0.000E+00  0.000E+00  0.000E+00  3.19077E+01  5.743E-01  2.000E+01  2.000E+04 -2.418E+00
   1   18   30     3     9    1.3828E+06 -4.5237E+04   1.4280E+06  0.000E+00  0.000E+00  0.000E+00  3.10306E+01  5.861E-01  2.000E+01  2.000E+04 -2.262E+00



1
              HEAD IN LAYER   1 AT END OF TIME STEP   1 IN STRESS PERIOD    1
  ---------------------------------------------------------------------------

          1      2      3      4      5      6      7      8      9     10
         11     12     13     14     15     16     17     18     19     20
         21     22     23     24     25     26     27     28     29     30
 .........................................................................
   1  ****** ****** ****** ****** ****** ****** ****** ****** ****** ******
      ****** ****** ****** ****** ****** ****** ****** ****** ****** ******
      ****** ****** ****** ****** ****** ****** ****** ****** ****** ******
   2  ****** ****** ****** ****** ****** ****** ****** ****** ****** ******
      ****** ****** ****** ****** ****** ****** ****** ****** ****** ******
      ****** ****** ****** ****** ****** ****** ****** ****** ****** ******
   3  ****** ****** ****** ****** ****** ****** ****** ****** ****** ******
      ****** ****** ****** ****** ****** ****** ****** ****** ****** ******
      ****** ****** ****** ****** ****** ****** ****** ****** ****** ******
   4  ****** ****** ****** ****** ****** ****** ****** ****** ****** ******
      ****** ****** ****** ****** ****** ****** ****** ****** ****** ******
      ****** ****** ****** ****** ****** ****** ****** ****** ****** ******
   5  ****** ****** ****** ****** ****** ****** ****** ****** ****** ******
      ****** ****** ****** ****** ****** ****** ****** ****** ****** ******
      ****** ****** ****** ****** ****** ****** ****** ****** ****** ******
   6  ****** ****** ****** ****** ****** ****** ****** ****** ****** ******
      ****** ****** ****** ****** ****** ****** ****** ****** ****** ******
      ****** ****** ****** ****** ****** ****** ****** ****** ****** ******
   7  ****** ****** ****** ****** ****** ****** ****** ****** ****** ******
      ****** ****** ****** ****** ****** ****** ****** ****** ****** ******
      ****** ****** ****** ****** ****** ****** ****** ****** ****** ******
   8  ****** ****** ****** ****** ****** ****** ****** ****** ****** ******
      ****** ****** ****** ****** ****** ****** ****** ****** ****** ******
      ****** ****** ****** ****** ****** ****** ****** ****** ****** ******
   9  ****** ****** ****** ****** ****** ****** ****** ****** ****** ******
      ****** ****** ****** ****** ****** ****** ****** ****** ****** ******
      ****** ****** ****** ****** ****** ****** ****** ****** ****** ******
  10  ****** ****** ****** ****** ****** ****** ****** ****** ****** ******
      ****** ****** ****** ****** ****** ****** ****** ****** ****** ******
      ****** ****** ****** ****** ****** ****** ****** ****** ****** ******
  11  ****** ****** ****** ****** ****** ****** ****** ****** ****** ******
      ****** ****** ****** ****** ****** ****** ****** ****** ****** ******
      ****** ****** ****** ****** ****** ****** ****** ****** ****** ******
  12  ****** ****** ****** ****** ****** ****** ****** ****** ****** ******
      ****** ****** ****** ****** ****** ****** ****** ****** ****** ******
      ****** ****** ****** ****** ****** ****** ****** ****** ****** ******
  13  ****** ****** ****** ****** ****** ****** ****** ****** ****** ******
      ****** ****** ****** ****** ****** ****** ****** ****** ****** ******
      ****** ****** ****** ****** ****** ****** ****** ****** ****** ******
  14  ****** ****** ****** ****** ****** ****** ****** ****** ****** ******
      ****** ****** ****** ****** ****** ****** ****** ****** ****** ******
      ****** ****** ****** ****** ****** ****** ****** ****** ****** ******
  15  ****** ****** ****** ****** ****** ****** ****** ****** ****** ******
      ****** ****** ****** ****** ****** ****** ****** ****** ****** ******
      ****** ****** ****** ****** ****** ****** ****** ****** ****** ******
  16  ****** ****** ****** ****** ****** ****** ****** ****** ****** ******
      ****** ****** ****** ****** ****** ****** ****** ****** ****** ******
      ****** ****** ****** ****** ****** ****** ****** ****** ****** ******
  17  ****** ****** ****** ****** ****** ****** ****** ****** ****** ******
      ****** ****** ****** ****** ****** ****** ****** ****** ****** ******
      ****** ****** ****** ****** ****** ****** ****** ****** ****** ******
  18  ****** ****** ****** ****** ****** ****** ****** ****** ****** ******
      ****** ****** ****** ****** ****** ****** ****** ****** ****** ******
      ****** ****** ****** ****** ****** ****** ****** ****** ****** ******
  19  ****** ****** ****** ****** ****** ****** ****** ****** ****** ******
      ****** ****** ****** ****** ****** ****** ****** ****** ****** ******
      ****** ****** ****** ****** ****** ****** ****** ****** ****** ******
  20  ****** ****** ****** ****** ****** ****** ****** ****** ****** ******
      ****** ****** ****** ****** ****** ****** ****** ****** ****** ******
      ****** ****** ****** ****** ****** ****** ****** ****** ****** ******
  21  ****** ****** ****** ****** ****** ****** ****** ****** ****** ******
      ****** ****** ****** ****** ****** ****** ****** ****** ****** ******
      ****** ****** ****** ****** ****** ****** ****** ****** ****** ******
  22  ****** ****** ****** ****** ****** ****** ****** ****** ****** ******
      ****** ****** ****** ****** ****** ****** ****** ****** ****** ******
      ****** ****** ****** ****** ****** ****** ****** ****** ****** ******
  23  ****** ****** ****** ****** ****** ****** ****** ****** ****** ******
      ****** ****** ****** ****** ****** ****** ****** ****** ****** ******
      ****** ****** ****** ****** ****** ****** ****** ****** ****** ******
  24  ****** ****** ****** ****** ****** ****** ****** ****** ****** ******
      ****** ****** ****** ****** ****** ****** ****** ****** ****** ******
      ****** ****** ****** ****** ****** ****** ****** ****** ****** ******
  25  ****** ****** ****** ****** ****** ****** ****** ****** ****** ******
      ****** ****** ****** ****** ****** ****** ****** ****** ****** ******
      ****** ****** ****** ****** ****** ****** ****** ****** ****** ******

 HEAD WILL BE SAVED ON UNIT   51 AT END OF TIME STEP    1, STRESS PERIOD    1
1
  VOLUMETRIC BUDGET FOR ENTIRE MODEL AT END OF TIME STEP    1, STRESS PERIOD   1
  ------------------------------------------------------------------------------

     CUMULATIVE VOLUMES      L**3       RATES FOR THIS TIME STEP      L**3/T
     ------------------                 ------------------------

           IN:                                      IN:
           ---                                      ---
             STORAGE =    19292953.7903               STORAGE =      209706.0195
       CONSTANT HEAD =   104375481.9601         CONSTANT HEAD =     1134516.1083
               WELLS =           0.0000                 WELLS =           0.0000
            RECHARGE =     1269600.0000              RECHARGE =       13800.0000
      STREAM LEAKAGE =           0.0000        STREAM LEAKAGE =           0.0000

            TOTAL IN =   124938035.7504              TOTAL IN =     1358022.1277

          OUT:                                     OUT:
          ----                                     ----
             STORAGE =           0.0000               STORAGE =           0.0000
       CONSTANT HEAD =           0.0000         CONSTANT HEAD =           0.0000
               WELLS =     7360000.0000                 WELLS =       80000.0000
            RECHARGE =           0.0000              RECHARGE =           0.0000
      STREAM LEAKAGE =   117578037.4232        STREAM LEAKAGE =     1278022.1459

           TOTAL OUT =   124938037.4232             TOTAL OUT =     1358022.1459

            IN - OUT =          -1.6728              IN - OUT =      -1.8183E-02

 PERCENT DISCREPANCY =          -0.00     PERCENT DISCREPANCY =          -0.00






         TIME SUMMARY AT END OF TIME STEP    1 IN STRESS PERIOD    1
                    SECONDS     MINUTES      HOURS       DAYS        YEARS
                    -----------------------------------------------------------
   TIME STEP LENGTH 7.94880E+06 1.32480E+05  2208.0      92.000     0.25188    
 STRESS PERIOD TIME 7.94880E+06 1.32480E+05  2208.0      92.000     0.25188    
         TOTAL TIME 7.94880E+06 1.32480E+05  2208.0      92.000     0.25188    
1
1
                            STRESS PERIOD NO.    2, LENGTH =   91.00000    
                            -----------------------------------------------

                              NUMBER OF TIME STEPS =     1

                               MULTIPLIER FOR DELT =     1.500

                            INITIAL TIME STEP SIZE =   91.00000    

 WELL NO.  LAYER   ROW   COL   STRESS RATE         
 --------------------------------------------------
      1      1      8     16     -0.3000E+05
      2      1     21     24       0.000    
      3      1     23     11     -0.5250E+05

      3 WELLS

                 RECHARGE =  2.000000E-03

 REUSING STREAM SEGMENT DATA FROM LAST STRESS PERIOD
 
 SOLVING FOR HEAD 


     6 CALLS TO PCG ROUTINE FOR TIME STEP   1 IN STRESS PERIOD    2
    25 TOTAL ITERATIONS

 OUTPUT CONTROL FOR STRESS PERIOD    2   TIME STEP    1
    SAVE BUDGET
    SAVE HEAD FOR ALL LAYERS
    PRINT HEAD FOR ALL LAYERS
 UBDSV2 SAVING "STREAMFLOW OUT  " ON UNIT  50 AT TIME STEP  1, STRESS PERIOD   2



 STREAM LISTING     PERIOD      2   STEP        1

 LAYER ROW COL. STREAM  RCH.  FLOW INTO     FLOW TO   FLOW OUT OF   OVRLND.     DIRECT     STREAM       STREAM     STREAM     STREAM   STREAMBED  STREAMBED
                SEG.NO.  NO.  STRM. RCH.    AQUIFER    STRM. RCH.    RUNOFF     PRECIP       ET          HEAD       DEPTH      WIDTH   CONDCTNC.   GRADIENT

   1   13    1     1     1    1.0000E+05 -2.8299E+04   1.2830E+05  0.000E+00  0.000E+00  0.000E+00  4.84180E+01  1.566E-01  2.000E+01  2.000E+04 -1.415E+00
   1   13    2     1     2    1.2830E+05 -3.8122E+04   1.6642E+05  0.000E+00  0.000E+00  0.000E+00  4.79666E+01  1.825E-01  2.000E+01  2.000E+04 -1.906E+00
   1   14    3     1     3    1.6642E+05 -3.3516E+04   1.9994E+05  0.000E+00  0.000E+00  0.000E+00  4.75148E+01  2.080E-01  2.000E+01  2.000E+04 -1.676E+00
   1   15    4     1     4    1.9994E+05 -3.2632E+04   2.3257E+05  0.000E+00  0.000E+00  0.000E+00  4.70593E+01  2.298E-01  2.000E+01  2.000E+04 -1.632E+00
   1   16    5     1     5    2.3257E+05 -3.3901E+04   2.6647E+05  0.000E+00  0.000E+00  0.000E+00  4.66026E+01  2.504E-01  2.000E+01  2.000E+04 -1.695E+00
   1   16    6     1     6    2.6647E+05 -2.9514E+04   2.9599E+05  0.000E+00  0.000E+00  0.000E+00  4.61440E+01  2.690E-01  2.000E+01  2.000E+04 -1.476E+00
   1   16    7     1     7    2.9599E+05 -2.9214E+04   3.2520E+05  0.000E+00  0.000E+00  0.000E+00  4.56832E+01  2.855E-01  2.000E+01  2.000E+04 -1.461E+00
   1   16    8     1     8    3.2520E+05 -2.9262E+04   3.5446E+05  0.000E+00  0.000E+00  0.000E+00  4.52218E+01  3.014E-01  2.000E+01  2.000E+04 -1.463E+00
   1   16    9     1     9    3.5446E+05 -2.9208E+04   3.8367E+05  0.000E+00  0.000E+00  0.000E+00  4.47598E+01  3.167E-01  2.000E+01  2.000E+04 -1.460E+00
   1   16   10     1    10    3.8367E+05 -2.9128E+04   4.1280E+05  0.000E+00  0.000E+00  0.000E+00  4.42974E+01  3.314E-01  2.000E+01  2.000E+04 -1.456E+00
   1   16   11     1    11    4.1280E+05 -2.9665E+04   4.4246E+05  0.000E+00  0.000E+00  0.000E+00  4.38345E+01  3.459E-01  2.000E+01  2.000E+04 -1.483E+00
   1   16   12     1    12    4.4246E+05 -3.5101E+04   4.7756E+05  0.000E+00  0.000E+00  0.000E+00  4.33728E+01  3.614E-01  2.000E+01  2.000E+04 -1.755E+00
   1   15   13     1    13    4.7756E+05 -3.4196E+04   5.1176E+05  0.000E+00  0.000E+00  0.000E+00  4.29116E+01  3.775E-01  2.000E+01  2.000E+04 -1.710E+00
   1   14   14     1    14    5.1176E+05 -3.4730E+04   5.4649E+05  0.000E+00  0.000E+00  0.000E+00  4.24499E+01  3.931E-01  2.000E+01  2.000E+04 -1.737E+00
   1   13   15     1    15    5.4649E+05 -3.6506E+04   5.8300E+05  0.000E+00  0.000E+00  0.000E+00  4.19883E+01  4.087E-01  2.000E+01  2.000E+04 -1.825E+00
   1   12   16     1    16    5.8300E+05 -4.1481E+04   6.2448E+05  0.000E+00  0.000E+00  0.000E+00  4.15277E+01  4.254E-01  2.000E+01  2.000E+04 -2.074E+00
   1   12   17     1    17    6.2448E+05 -3.2531E+04   6.5701E+05  0.000E+00  0.000E+00  0.000E+00  4.10659E+01  4.409E-01  2.000E+01  2.000E+04 -1.627E+00
   1   12   18     1    18    6.5701E+05 -3.1268E+04   6.8828E+05  0.000E+00  0.000E+00  0.000E+00  4.06017E+01  4.539E-01  2.000E+01  2.000E+04 -1.563E+00
   1   12   19     1    19    6.8828E+05 -3.5578E+04   7.2385E+05  0.000E+00  0.000E+00  0.000E+00  4.01378E+01  4.673E-01  2.000E+01  2.000E+04 -1.779E+00
   1   13   20     1    20    7.2385E+05 -2.6621E+04   7.5047E+05  0.000E+00  0.000E+00  0.000E+00  3.96728E+01  4.796E-01  2.000E+01  2.000E+04 -1.331E+00
   1   14   21     1    21    7.5047E+05 -1.9835E+04   7.7031E+05  0.000E+00  0.000E+00  0.000E+00  3.92045E+01  4.886E-01  2.000E+01  2.000E+04 -9.917E-01
   1   14   22     1    22    7.7031E+05 -1.8411E+03   7.7215E+05  0.000E+00  0.000E+00  0.000E+00  3.87314E+01  4.928E-01  2.000E+01  2.000E+04 -9.205E-02
   1    9   30     2     1    5.0000E+04 -2.6929E+04   7.6929E+04  0.000E+00  0.000E+00  0.000E+00  4.02587E+01  1.337E-01  2.000E+01  2.000E+04 -1.346E+00
   1    9   29     2     2    7.6929E+04 -2.9380E+04   1.0631E+05  0.000E+00  0.000E+00  0.000E+00  4.00416E+01  1.666E-01  2.000E+01  2.000E+04 -1.469E+00
   1    9   28     2     3    1.0631E+05 -3.3640E+04   1.3995E+05  0.000E+00  0.000E+00  0.000E+00  3.98240E+01  1.990E-01  2.000E+01  2.000E+04 -1.682E+00
   1    9   27     2     4    1.3995E+05 -4.7734E+04   1.8768E+05  0.000E+00  0.000E+00  0.000E+00  3.96111E+01  2.361E-01  2.000E+01  2.000E+04 -2.387E+00
   1   10   26     2     5    1.8768E+05 -3.3673E+04   2.2136E+05  0.000E+00  0.000E+00  0.000E+00  3.93948E+01  2.698E-01  2.000E+01  2.000E+04 -1.684E+00
   1   11   25     2     6    2.2136E+05 -2.5256E+04   2.4661E+05  0.000E+00  0.000E+00  0.000E+00  3.91675E+01  2.925E-01  2.000E+01  2.000E+04 -1.263E+00
   1   12   24     2     7    2.4661E+05 -1.8619E+04   2.6523E+05  0.000E+00  0.000E+00  0.000E+00  3.89336E+01  3.086E-01  2.000E+01  2.000E+04 -9.309E-01
   1   13   23     2     8    2.6523E+05 -1.3234E+04   2.7847E+05  0.000E+00  0.000E+00  0.000E+00  3.86950E+01  3.200E-01  2.000E+01  2.000E+04 -6.617E-01
   1   14   22     2     9    2.7847E+05 -7.4239E+03   2.8589E+05  0.000E+00  0.000E+00  0.000E+00  3.84523E+01  3.273E-01  2.000E+01  2.000E+04 -3.712E-01
   1   14   22     3     1    1.0580E+06 -1.5428E+04   1.0735E+06  0.000E+00  0.000E+00  0.000E+00  3.80520E+01  4.965E-01  2.000E+01  2.000E+04 -7.714E-01
   1   15   23     3     2    1.0735E+06 -2.3962E+04   1.0974E+06  0.000E+00  0.000E+00  0.000E+00  3.71686E+01  5.020E-01  2.000E+01  2.000E+04 -1.198E+00
   1   15   24     3     3    1.0974E+06 -1.9984E+04   1.1174E+06  0.000E+00  0.000E+00  0.000E+00  3.62858E+01  5.080E-01  2.000E+01  2.000E+04 -9.992E-01
   1   15   25     3     4    1.1174E+06 -1.9611E+04   1.1370E+06  0.000E+00  0.000E+00  0.000E+00  3.54023E+01  5.135E-01  2.000E+01  2.000E+04 -9.805E-01
   1   15   26     3     5    1.1370E+06 -2.2455E+04   1.1595E+06  0.000E+00  0.000E+00  0.000E+00  3.45192E+01  5.192E-01  2.000E+01  2.000E+04 -1.123E+00
   1   16   27     3     6    1.1595E+06 -2.9694E+04   1.1892E+06  0.000E+00  0.000E+00  0.000E+00  3.36373E+01  5.262E-01  2.000E+01  2.000E+04 -1.485E+00
   1   17   28     3     7    1.1892E+06 -3.6759E+04   1.2259E+06  0.000E+00  0.000E+00  0.000E+00  3.27573E+01  5.351E-01  2.000E+01  2.000E+04 -1.838E+00
   1   18   29     3     8    1.2259E+06 -4.7711E+04   1.2736E+06  0.000E+00  0.000E+00  0.000E+00  3.18796E+01  5.463E-01  2.000E+01  2.000E+04 -2.386E+00
   1   18   30     3     9    1.2736E+06 -4.4090E+04   1.3177E+06  0.000E+00  0.000E+00  0.000E+00  3.10027E+01  5.582E-01  2.000E+01  2.000E+04 -2.204E+00



1
              HEAD IN LAYER   1 AT END OF TIME STEP   1 IN STRESS PERIOD    2
  ---------------------------------------------------------------------------

          1      2      3      4      5      6      7      8      9     10
         11     12     13     14     15     16     17     18     19     20
         21     22     23     24     25     26     27     28     29     30
 .........................................................................
   1  ****** ****** ****** ****** ****** ****** ****** ****** ****** ******
      ****** ****** ****** ****** ****** ****** ****** ****** ****** ******
      ****** ****** ****** ****** ****** ****** ****** ****** ****** ******
   2  ****** ****** ****** ****** ****** ****** ****** ****** ****** ******
      ****** ****** ****** ****** ****** ****** ****** ****** ****** ******
      ****** ****** ****** ****** ****** ****** ****** ****** ****** ******
   3  ****** ****** ****** ****** ****** ****** ****** ****** ****** ******
      ****** ****** ****** ****** ****** ****** ****** ****** ****** ******
      ****** ****** ****** ****** ****** ****** ****** ****** ****** ******
   4  ****** ****** ****** ****** ****** ****** ****** ****** ****** ******
      ****** ****** ****** ****** ****** ****** ****** ****** ****** ******
      ****** ****** ****** ****** ****** ****** ****** ****** ****** ******
   5  ****** ****** ****** ****** ****** ****** ****** ****** ****** ******
      ****** ****** ****** ****** ****** ****** ****** ****** ****** ******
      ****** ****** ****** ****** ****** ****** ****** ****** ****** ******
   6  ****** ****** ****** ****** ****** ****** ****** ****** ****** ******
      ****** ****** ****** ****** ****** ****** ****** ****** ****** ******
      ****** ****** ****** ****** ****** ****** ****** ****** ****** ******
   7  ****** ****** ****** ****** ****** ****** ****** ****** ****** ******
      ****** ****** ****** ****** ****** ****** ****** ****** ****** ******
      ****** ****** ****** ****** ****** ****** ****** ****** ****** ******
   8  ****** ****** ****** ****** ****** ****** ****** ****** ****** ******
      ****** ****** ****** ****** ****** ****** ****** ****** ****** ******
      ****** ****** ****** ****** ****** ****** ****** ****** ****** ******
   9  ****** ****** ****** ****** ****** ****** ****** ****** ****** ******
      ****** ****** ****** ****** ****** ****** ****** ****** ****** ******
      ****** ****** ****** ****** ****** ****** ****** ****** ****** ******
  10  ****** ****** ****** ****** ****** ****** ****** ****** ****** ******
      ****** ****** ****** ****** ****** ****** ****** ****** ****** ******
      ****** ****** ****** ****** ****** ****** ****** ****** ****** ******
  11  ****** ****** ****** ****** ****** ****** ****** ****** ****** ******
      ****** ****** ****** ****** ****** ****** ****** ****** ****** ******
      ****** ****** ****** ****** ****** ****** ****** ****** ****** ******
  12  ****** ****** ****** ****** ****** ****** ****** ****** ****** ******
      ****** ****** ****** ****** ****** ****** ****** ****** ****** ******
      ****** ****** ****** ****** ****** ****** ****** ****** ****** ******
  13  ****** ****** ****** ****** ****** ****** ****** ****** ****** ******
      ****** ****** ****** ****** ****** ****** ****** ****** ****** ******
      ****** ****** ****** ****** ****** ****** ****** ****** ****** ******
  14  ****** ****** ****** ****** ****** ****** ****** ****** ****** ******
      ****** ****** ****** ****** ****** ****** ****** ****** ****** ******
      ****** ****** ****** ****** ****** ****** ****** ****** ****** ******
  15  ****** ****** ****** ****** ****** ****** ****** ****** ****** ******
      ****** ****** ****** ****** ****** ****** ****** ****** ****** ******
      ****** ****** ****** ****** ****** ****** ****** ****** ****** ******
  16  ****** ****** ****** ****** ****** ****** ****** ****** ****** ******
      ****** ****** ****** ****** ****** ****** ****** ****** ****** ******
      ****** ****** ****** ****** ****** ****** ****** ****** ****** ******
  17  ****** ****** ****** ****** ****** ****** ****** ****** ****** ******
      ****** ****** ****** ****** ****** ****** ****** ****** ****** ******
      ****** ****** ****** ****** ****** ****** ****** ****** ****** ******
  18  ****** ****** ****** ****** ****** ****** ****** ****** ****** ******
      ****** ****** ****** ****** ****** ****** ****** ****** ****** ******
      ****** ****** ****** ****** ****** ****** ****** ****** ****** ******
  19  ****** ****** ****** ****** ****** ****** ****** ****** ****** ******
      ****** ****** ****** ****** ****** ****** ****** ****** ****** ******
      ****** ****** ****** ****** ****** ****** ****** ****** ****** ******
  20  ****** ****** ****** ****** ****** ****** ****** ****** ****** ******
      ****** ****** ****** ****** ****** ****** ****** ****** ****** ******
      ****** ****** ****** ****** ****** ****** ****** ****** ****** ******
  21  ****** ****** ****** ****** ****** ****** ****** ****** ****** ******
      ****** ****** ****** ****** ****** ****** ****** ****** ****** ******
      ****** ****** ****** ****** ****** ****** ****** ****** ****** ******
  22  ****** ****** ****** ****** ****** ****** ****** ****** ****** ******
      ****** ****** ****** ****** ****** ****** ****** ****** ****** ******
      ****** ****** ****** ****** ****** ****** ****** ****** ****** ******
  23  ****** ****** ****** ****** ****** ****** ****** ****** ****** ******
      ****** ****** ****** ****** ****** ****** ****** ****** ****** ******
      ****** ****** ****** ****** ****** ****** ****** ****** ****** ******
  24  ****** ****** ****** ****** ****** ****** ****** ****** ****** ******
      ****** ****** ****** ****** ****** ****** ****** ****** ****** ******
      ****** ****** ****** ****** ****** ****** ****** ****** ****** ******
  25  ****** ****** ****** ****** ****** ****** ****** ****** ****** ******
      ****** ****** ****** ****** ****** ****** ****** ****** ****** ******
      ****** ****** ****** ****** ****** ****** ****** ****** ****** ******

 HEAD WILL BE SAVED ON UNIT   51 AT END OF TIME STEP    1, STRESS PERIOD    2
1
  VOLUMETRIC BUDGET FOR ENTIRE MODEL AT END OF TIME STEP    1, STRESS PERIOD   2
  ------------------------------------------------------------------------------

     CUMULATIVE VOLUMES      L**3       RATES FOR THIS TIME STEP      L**3/T
     ------------------                 ------------------------

           IN:                                      IN:
           ---                                      ---
             STORAGE =    20017579.8776               STORAGE =        7962.9240
       CONSTANT HEAD =   212500262.6564         CONSTANT HEAD =     1188184.4033
               WELLS =           0.0000                 WELLS =           0.0000
            RECHARGE =     6292800.0000              RECHARGE =       55200.0000
      STREAM LEAKAGE =           0.0000        STREAM LEAKAGE =           0.0000

            TOTAL IN =   238810642.5340              TOTAL IN =     1251347.3273

          OUT:                                     OUT:
          ----                                     ----
             STORAGE =      101242.1594               STORAGE =        1112.5512
       CONSTANT HEAD =           0.0000         CONSTANT HEAD =           0.0000
               WELLS =    14867568.2500                 WELLS =       82500.7500
            RECHARGE =           0.0000              RECHARGE =           0.0000
      STREAM LEAKAGE =   223841835.7509        STREAM LEAKAGE =     1167734.0476

           TOTAL OUT =   238810646.1603             TOTAL OUT =     1251347.3488

            IN - OUT =          -3.6263              IN - OUT =      -2.1467E-02

 PERCENT DISCREPANCY =          -0.00     PERCENT DISCREPANCY =          -0.00






         TIME SUMMARY AT END OF TIME STEP    1 IN STRESS PERIOD    2
                    SECONDS     MINUTES      HOURS       DAYS        YEARS
                    -----------------------------------------------------------
   TIME STEP LENGTH 7.86240E+06 1.31040E+05  2184.0      91.000     0.24914    
 STRESS PERIOD TIME 7.86240E+06 1.31040E+05  2184.0      91.000     0.24914    
         TOTAL TIME 1.58112E+07 2.63520E+05  4392.0      183.00     0.50103    
1
1
                            STRESS PERIOD NO.    3, LENGTH =   91.00000    
                            -----------------------------------------------

                              NUMBER OF TIME STEPS =     1

                               MULTIPLIER FOR DELT =     1.500

                            INITIAL TIME STEP SIZE =   91.00000    

 WELL NO.  LAYER   ROW   COL   STRESS RATE         
 --------------------------------------------------
      1      1      8     16     -0.3000E+05
      2      1     21     24     -0.5000E+05

      2 WELLS

                 RECHARGE =   0.00000    

 REUSING STREAM SEGMENT DATA FROM LAST STRESS PERIOD
 
 SOLVING FOR HEAD 


     6 CALLS TO PCG ROUTINE FOR TIME STEP   1 IN STRESS PERIOD    3
    23 TOTAL ITERATIONS

 OUTPUT CONTROL FOR STRESS PERIOD    3   TIME STEP    1
    SAVE BUDGET
    SAVE HEAD FOR ALL LAYERS
    PRINT HEAD FOR ALL LAYERS
 UBDSV2 SAVING "STREAMFLOW OUT  " ON UNIT  50 AT TIME STEP  1, STRESS PERIOD   3



 STREAM LISTING     PERIOD      3   STEP        1

 LAYER ROW COL. STREAM  RCH.  FLOW INTO     FLOW TO   FLOW OUT OF   OVRLND.     DIRECT     STREAM       STREAM     STREAM     STREAM   STREAMBED  STREAMBED
                SEG.NO.  NO.  STRM. RCH.    AQUIFER    STRM. RCH.    RUNOFF     PRECIP       ET          HEAD       DEPTH      WIDTH   CONDCTNC.   GRADIENT

   1   13    1     1     1    1.0000E+05 -2.7342E+04   1.2734E+05  0.000E+00  0.000E+00  0.000E+00  4.84176E+01  1.562E-01  2.000E+01  2.000E+04 -1.367E+00
   1   13    2     1     2    1.2734E+05 -3.6957E+04   1.6430E+05  0.000E+00  0.000E+00  0.000E+00  4.79655E+01  1.814E-01  2.000E+01  2.000E+04 -1.848E+00
   1   14    3     1     3    1.6430E+05 -3.2462E+04   1.9676E+05  0.000E+00  0.000E+00  0.000E+00  4.75130E+01  2.062E-01  2.000E+01  2.000E+04 -1.623E+00
   1   15    4     1     4    1.9676E+05 -3.1730E+04   2.2849E+05  0.000E+00  0.000E+00  0.000E+00  4.70570E+01  2.275E-01  2.000E+01  2.000E+04 -1.587E+00
   1   16    5     1     5    2.2849E+05 -3.3327E+04   2.6182E+05  0.000E+00  0.000E+00  0.000E+00  4.66000E+01  2.477E-01  2.000E+01  2.000E+04 -1.666E+00
   1   16    6     1     6    2.6182E+05 -2.9081E+04   2.9090E+05  0.000E+00  0.000E+00  0.000E+00  4.61412E+01  2.662E-01  2.000E+01  2.000E+04 -1.454E+00
   1   16    7     1     7    2.9090E+05 -2.8874E+04   3.1977E+05  0.000E+00  0.000E+00  0.000E+00  4.56803E+01  2.826E-01  2.000E+01  2.000E+04 -1.444E+00
   1   16    8     1     8    3.1977E+05 -2.9022E+04   3.4880E+05  0.000E+00  0.000E+00  0.000E+00  4.52189E+01  2.984E-01  2.000E+01  2.000E+04 -1.451E+00
   1   16    9     1     9    3.4880E+05 -2.9067E+04   3.7786E+05  0.000E+00  0.000E+00  0.000E+00  4.47569E+01  3.137E-01  2.000E+01  2.000E+04 -1.453E+00
   1   16   10     1    10    3.7786E+05 -2.9061E+04   4.0692E+05  0.000E+00  0.000E+00  0.000E+00  4.42944E+01  3.285E-01  2.000E+01  2.000E+04 -1.453E+00
   1   16   11     1    11    4.0692E+05 -2.9621E+04   4.3654E+05  0.000E+00  0.000E+00  0.000E+00  4.38317E+01  3.430E-01  2.000E+01  2.000E+04 -1.481E+00
   1   16   12     1    12    4.3654E+05 -3.4979E+04   4.7152E+05  0.000E+00  0.000E+00  0.000E+00  4.33699E+01  3.586E-01  2.000E+01  2.000E+04 -1.749E+00
   1   15   13     1    13    4.7152E+05 -3.3415E+04   5.0494E+05  0.000E+00  0.000E+00  0.000E+00  4.29086E+01  3.745E-01  2.000E+01  2.000E+04 -1.671E+00
   1   14   14     1    14    5.0494E+05 -3.3634E+04   5.3857E+05  0.000E+00  0.000E+00  0.000E+00  4.24466E+01  3.898E-01  2.000E+01  2.000E+04 -1.682E+00
   1   13   15     1    15    5.3857E+05 -3.5287E+04   5.7386E+05  0.000E+00  0.000E+00  0.000E+00  4.19846E+01  4.050E-01  2.000E+01  2.000E+04 -1.764E+00
   1   12   16     1    16    5.7386E+05 -4.0273E+04   6.1413E+05  0.000E+00  0.000E+00  0.000E+00  4.15236E+01  4.213E-01  2.000E+01  2.000E+04 -2.014E+00
   1   12   17     1    17    6.1413E+05 -3.1519E+04   6.4565E+05  0.000E+00  0.000E+00  0.000E+00  4.10614E+01  4.364E-01  2.000E+01  2.000E+04 -1.576E+00
   1   12   18     1    18    6.4565E+05 -3.0268E+04   6.7592E+05  0.000E+00  0.000E+00  0.000E+00  4.05968E+01  4.491E-01  2.000E+01  2.000E+04 -1.513E+00
   1   12   19     1    19    6.7592E+05 -3.4474E+04   7.1039E+05  0.000E+00  0.000E+00  0.000E+00  4.01326E+01  4.622E-01  2.000E+01  2.000E+04 -1.724E+00
   1   13   20     1    20    7.1039E+05 -2.5383E+04   7.3578E+05  0.000E+00  0.000E+00  0.000E+00  3.96672E+01  4.741E-01  2.000E+01  2.000E+04 -1.269E+00
   1   14   21     1    21    7.3578E+05 -1.8354E+04   7.5413E+05  0.000E+00  0.000E+00  0.000E+00  3.91985E+01  4.826E-01  2.000E+01  2.000E+04 -9.177E-01
   1   14   22     1    22    7.5413E+05 -1.2474E+03   7.5538E+05  0.000E+00  0.000E+00  0.000E+00  3.87251E+01  4.864E-01  2.000E+01  2.000E+04 -6.237E-02
   1    9   30     2     1    5.0000E+04 -2.6219E+04   7.6219E+04  0.000E+00  0.000E+00  0.000E+00  4.02582E+01  1.332E-01  2.000E+01  2.000E+04 -1.311E+00
   1    9   29     2     2    7.6219E+04 -2.8672E+04   1.0489E+05  0.000E+00  0.000E+00  0.000E+00  4.00405E+01  1.655E-01  2.000E+01  2.000E+04 -1.434E+00
   1    9   28     2     3    1.0489E+05 -3.2911E+04   1.3780E+05  0.000E+00  0.000E+00  0.000E+00  3.98222E+01  1.972E-01  2.000E+01  2.000E+04 -1.646E+00
   1    9   27     2     4    1.3780E+05 -4.6847E+04   1.8465E+05  0.000E+00  0.000E+00  0.000E+00  3.96089E+01  2.339E-01  2.000E+01  2.000E+04 -2.342E+00
   1   10   26     2     5    1.8465E+05 -3.2722E+04   2.1737E+05  0.000E+00  0.000E+00  0.000E+00  3.93920E+01  2.670E-01  2.000E+01  2.000E+04 -1.636E+00
   1   11   25     2     6    2.1737E+05 -2.4310E+04   2.4168E+05  0.000E+00  0.000E+00  0.000E+00  3.91641E+01  2.891E-01  2.000E+01  2.000E+04 -1.216E+00
   1   12   24     2     7    2.4168E+05 -1.7727E+04   2.5941E+05  0.000E+00  0.000E+00  0.000E+00  3.89297E+01  3.047E-01  2.000E+01  2.000E+04 -8.863E-01
   1   13   23     2     8    2.5941E+05 -1.2415E+04   2.7182E+05  0.000E+00  0.000E+00  0.000E+00  3.86906E+01  3.156E-01  2.000E+01  2.000E+04 -6.207E-01
   1   14   22     2     9    2.7182E+05 -6.8006E+03   2.7863E+05  0.000E+00  0.000E+00  0.000E+00  3.84474E+01  3.224E-01  2.000E+01  2.000E+04 -3.400E-01
   1   14   22     3     1    1.0340E+06 -1.4845E+04   1.0488E+06  0.000E+00  0.000E+00  0.000E+00  3.80452E+01  4.896E-01  2.000E+01  2.000E+04 -7.422E-01
   1   15   23     3     2    1.0488E+06 -2.1632E+04   1.0705E+06  0.000E+00  0.000E+00  0.000E+00  3.71614E+01  4.948E-01  2.000E+01  2.000E+04 -1.082E+00
   1   15   24     3     3    1.0705E+06 -1.8009E+04   1.0885E+06  0.000E+00  0.000E+00  0.000E+00  3.62781E+01  5.003E-01  2.000E+01  2.000E+04 -9.004E-01
   1   15   25     3     4    1.0885E+06 -1.7799E+04   1.1063E+06  0.000E+00  0.000E+00  0.000E+00  3.53942E+01  5.053E-01  2.000E+01  2.000E+04 -8.900E-01
   1   15   26     3     5    1.1063E+06 -2.0755E+04   1.1270E+06  0.000E+00  0.000E+00  0.000E+00  3.45106E+01  5.106E-01  2.000E+01  2.000E+04 -1.038E+00
   1   16   27     3     6    1.1270E+06 -2.7105E+04   1.1541E+06  0.000E+00  0.000E+00  0.000E+00  3.36282E+01  5.171E-01  2.000E+01  2.000E+04 -1.355E+00
   1   17   28     3     7    1.1541E+06 -3.3830E+04   1.1880E+06  0.000E+00  0.000E+00  0.000E+00  3.27476E+01  5.253E-01  2.000E+01  2.000E+04 -1.692E+00
   1   18   29     3     8    1.1880E+06 -4.4727E+04   1.2327E+06  0.000E+00  0.000E+00  0.000E+00  3.18692E+01  5.359E-01  2.000E+01  2.000E+04 -2.236E+00
   1   18   30     3     9    1.2327E+06 -4.2067E+04   1.2748E+06  0.000E+00  0.000E+00  0.000E+00  3.09917E+01  5.473E-01  2.000E+01  2.000E+04 -2.103E+00



1
              HEAD IN LAYER   1 AT END OF TIME STEP   1 IN STRESS PERIOD    3
  ---------------------------------------------------------------------------

          1      2      3      4      5      6      7      8      9     10
         11     12     13     14     15     16     17     18     19     20
         21     22     23     24     25     26     27     28     29     30
 .........................................................................
   1  ****** ****** ****** ****** ****** ****** ****** ****** ****** ******
      ****** ****** ****** ****** ****** ****** ****** ****** ****** ******
      ****** ****** ****** ****** ****** ****** ****** ****** ****** ******
   2  ****** ****** ****** ****** ****** ****** ****** ****** ****** ******
      ****** ****** ****** ****** ****** ****** ****** ****** ****** ******
      ****** ****** ****** ****** ****** ****** ****** ****** ****** ******
   3  ****** ****** ****** ****** ****** ****** ****** ****** ****** ******
      ****** ****** ****** ****** ****** ****** ****** ****** ****** ******
      ****** ****** ****** ****** ****** ****** ****** ****** ****** ******
   4  ****** ****** ****** ****** ****** ****** ****** ****** ****** ******
      ****** ****** ****** ****** ****** ****** ****** ****** ****** ******
      ****** ****** ****** ****** ****** ****** ****** ****** ****** ******
   5  ****** ****** ****** ****** ****** ****** ****** ****** ****** ******
      ****** ****** ****** ****** ****** ****** ****** ****** ****** ******
      ****** ****** ****** ****** ****** ****** ****** ****** ****** ******
   6  ****** ****** ****** ****** ****** ****** ****** ****** ****** ******
      ****** ****** ****** ****** ****** ****** ****** ****** ****** ******
      ****** ****** ****** ****** ****** ****** ****** ****** ****** ******
   7  ****** ****** ****** ****** ****** ****** ****** ****** ****** ******
      ****** ****** ****** ****** ****** ****** ****** ****** ****** ******
      ****** ****** ****** ****** ****** ****** ****** ****** ****** ******
   8  ****** ****** ****** ****** ****** ****** ****** ****** ****** ******
      ****** ****** ****** ****** ****** ****** ****** ****** ****** ******
      ****** ****** ****** ****** ****** ****** ****** ****** ****** ******
   9  ****** ****** ****** ****** ****** ****** ****** ****** ****** ******
      ****** ****** ****** ****** ****** ****** ****** ****** ****** ******
      ****** ****** ****** ****** ****** ****** ****** ****** ****** ******
  10  ****** ****** ****** ****** ****** ****** ****** ****** ****** ******
      ****** ****** ****** ****** ****** ****** ****** ****** ****** ******
      ****** ****** ****** ****** ****** ****** ****** ****** ****** ******
  11  ****** ****** ****** ****** ****** ****** ****** ****** ****** ******
      ****** ****** ****** ****** ****** ****** ****** ****** ****** ******
      ****** ****** ****** ****** ****** ****** ****** ****** ****** ******
  12  ****** ****** ****** ****** ****** ****** ****** ****** ****** ******
      ****** ****** ****** ****** ****** ****** ****** ****** ****** ******
      ****** ****** ****** ****** ****** ****** ****** ****** ****** ******
  13  ****** ****** ****** ****** ****** ****** ****** ****** ****** ******
      ****** ****** ****** ****** ****** ****** ****** ****** ****** ******
      ****** ****** ****** ****** ****** ****** ****** ****** ****** ******
  14  ****** ****** ****** ****** ****** ****** ****** ****** ****** ******
      ****** ****** ****** ****** ****** ****** ****** ****** ****** ******
      ****** ****** ****** ****** ****** ****** ****** ****** ****** ******
  15  ****** ****** ****** ****** ****** ****** ****** ****** ****** ******
      ****** ****** ****** ****** ****** ****** ****** ****** ****** ******
      ****** ****** ****** ****** ****** ****** ****** ****** ****** ******
  16  ****** ****** ****** ****** ****** ****** ****** ****** ****** ******
      ****** ****** ****** ****** ****** ****** ****** ****** ****** ******
      ****** ****** ****** ****** ****** ****** ****** ****** ****** ******
  17  ****** ****** ****** ****** ****** ****** ****** ****** ****** ******
      ****** ****** ****** ****** ****** ****** ****** ****** ****** ******
      ****** ****** ****** ****** ****** ****** ****** ****** ****** ******
  18  ****** ****** ****** ****** ****** ****** ****** ****** ****** ******
      ****** ****** ****** ****** ****** ****** ****** ****** ****** ******
      ****** ****** ****** ****** ****** ****** ****** ****** ****** ******
  19  ****** ****** ****** ****** ****** ****** ****** ****** ****** ******
      ****** ****** ****** ****** ****** ****** ****** ****** ****** ******
      ****** ****** ****** ****** ****** ****** ****** ****** ****** ******
  20  ****** ****** ****** ****** ****** ****** ****** ****** ****** ******
      ****** ****** ****** ****** ****** ****** ****** ****** ****** ******
      ****** ****** ****** ****** ****** ****** ****** ****** ****** ******
  21  ****** ****** ****** ****** ****** ****** ****** ****** ****** ******
      ****** ****** ****** ****** ****** ****** ****** ****** ****** ******
      ****** ****** ****** ****** ****** ****** ****** ****** ****** ******
  22  ****** ****** ****** ****** ****** ****** ****** ****** ****** ******
      ****** ****** ****** ****** ****** ****** ****** ****** ****** ******
      ****** ****** ****** ****** ****** ****** ****** ****** ****** ******
  23  ****** ****** ****** ****** ****** ****** ****** ****** ****** ******
      ****** ****** ****** ****** ****** ****** ****** ****** ****** ******
      ****** ****** ****** ****** ****** ****** ****** ****** ****** ******
  24  ****** ****** ****** ****** ****** ****** ****** ****** ****** ******
      ****** ****** ****** ****** ****** ****** ****** ****** ****** ******
      ****** ****** ****** ****** ****** ****** ****** ****** ****** ******
  25  ****** ****** ****** ****** ****** ****** ****** ****** ****** ******
      ****** ****** ****** ****** ****** ****** ****** ****** ****** ******
      ****** ****** ****** ****** ****** ****** ****** ****** ****** ******

 HEAD WILL BE SAVED ON UNIT   51 AT END OF TIME STEP    1, STRESS PERIOD    3
1
  VOLUMETRIC BUDGET FOR ENTIRE MODEL AT END OF TIME STEP    1, STRESS PERIOD   3
  ------------------------------------------------------------------------------

     CUMULATIVE VOLUMES      L**3       RATES FOR THIS TIME STEP      L**3/T
     ------------------                 ------------------------

           IN:                                      IN:
           ---                                      ---
             STORAGE =    20442825.2092               STORAGE =        4673.0256
       CONSTANT HEAD =   321794885.0493         CONSTANT HEAD =     1201039.8065
               WELLS =           0.0000                 WELLS =           0.0000
            RECHARGE =     6292800.0000              RECHARGE =           0.0000
      STREAM LEAKAGE =           0.0000        STREAM LEAKAGE =           0.0000

            TOTAL IN =   348530510.2584              TOTAL IN =     1205712.8321

          OUT:                                     OUT:
          ----                                     ----
             STORAGE =      186872.9423               STORAGE =         940.9976
       CONSTANT HEAD =           0.0000         CONSTANT HEAD =           0.0000
               WELLS =    22147568.2500                 WELLS =       80000.0000
            RECHARGE =           0.0000              RECHARGE =           0.0000
      STREAM LEAKAGE =   326196077.2573        STREAM LEAKAGE =     1124771.8847

           TOTAL OUT =   348530518.4496             TOTAL OUT =     1205712.8823

            IN - OUT =          -8.1912              IN - OUT =      -5.0164E-02

 PERCENT DISCREPANCY =          -0.00     PERCENT DISCREPANCY =          -0.00






         TIME SUMMARY AT END OF TIME STEP    1 IN STRESS PERIOD    3
                    SECONDS     MINUTES      HOURS       DAYS        YEARS
                    -----------------------------------------------------------
   TIME STEP LENGTH 7.86240E+06 1.31040E+05  2184.0      91.000     0.24914    
 STRESS PERIOD TIME 7.86240E+06 1.31040E+05  2184.0      91.000     0.24914    
         TOTAL TIME 2.36736E+07 3.94560E+05  6576.0      274.00     0.75017    
1
1
                            STRESS PERIOD NO.    4, LENGTH =   91.00000    
                            -----------------------------------------------

                              NUMBER OF TIME STEPS =     1

                               MULTIPLIER FOR DELT =     1.500

                            INITIAL TIME STEP SIZE =   91.00000    

 WELL NO.  LAYER   ROW   COL   STRESS RATE         
 --------------------------------------------------
      1      1      8     16     -0.3000E+05
      2      1     21     24     -0.3807E+05
      3      1     23     11     -0.1193E+05

      3 WELLS

                 RECHARGE =  1.000000E-03

 REUSING STREAM SEGMENT DATA FROM LAST STRESS PERIOD
 
 SOLVING FOR HEAD 


     6 CALLS TO PCG ROUTINE FOR TIME STEP   1 IN STRESS PERIOD    4
    22 TOTAL ITERATIONS

 OUTPUT CONTROL FOR STRESS PERIOD    4   TIME STEP    1
    SAVE BUDGET
    SAVE HEAD FOR ALL LAYERS
    PRINT HEAD FOR ALL LAYERS
 UBDSV2 SAVING "STREAMFLOW OUT  " ON UNIT  50 AT TIME STEP  1, STRESS PERIOD   4



 STREAM LISTING     PERIOD      4   STEP        1

 LAYER ROW COL. STREAM  RCH.  FLOW INTO     FLOW TO   FLOW OUT OF   OVRLND.     DIRECT     STREAM       STREAM     STREAM     STREAM   STREAMBED  STREAMBED
                SEG.NO.  NO.  STRM. RCH.    AQUIFER    STRM. RCH.    RUNOFF     PRECIP       ET          HEAD       DEPTH      WIDTH   CONDCTNC.   GRADIENT

   1   13    1     1     1    1.0000E+05 -2.7711E+04   1.2771E+05  0.000E+00  0.000E+00  0.000E+00  4.84177E+01  1.564E-01  2.000E+01  2.000E+04 -1.386E+00
   1   13    2     1     2    1.2771E+05 -3.7397E+04   1.6511E+05  0.000E+00  0.000E+00  0.000E+00  4.79659E+01  1.818E-01  2.000E+01  2.000E+04 -1.870E+00
   1   14    3     1     3    1.6511E+05 -3.2888E+04   1.9800E+05  0.000E+00  0.000E+00  0.000E+00  4.75137E+01  2.069E-01  2.000E+01  2.000E+04 -1.644E+00
   1   15    4     1     4    1.9800E+05 -3.2127E+04   2.3012E+05  0.000E+00  0.000E+00  0.000E+00  4.70579E+01  2.284E-01  2.000E+01  2.000E+04 -1.606E+00
   1   16    5     1     5    2.3012E+05 -3.3649E+04   2.6377E+05  0.000E+00  0.000E+00  0.000E+00  4.66011E+01  2.488E-01  2.000E+01  2.000E+04 -1.682E+00
   1   16    6     1     6    2.6377E+05 -2.9345E+04   2.9312E+05  0.000E+00  0.000E+00  0.000E+00  4.61424E+01  2.674E-01  2.000E+01  2.000E+04 -1.467E+00
   1   16    7     1     7    2.9312E+05 -2.9115E+04   3.2223E+05  0.000E+00  0.000E+00  0.000E+00  4.56816E+01  2.839E-01  2.000E+01  2.000E+04 -1.456E+00
   1   16    8     1     8    3.2223E+05 -2.9243E+04   3.5148E+05  0.000E+00  0.000E+00  0.000E+00  4.52202E+01  2.998E-01  2.000E+01  2.000E+04 -1.462E+00
   1   16    9     1     9    3.5148E+05 -2.9267E+04   3.8074E+05  0.000E+00  0.000E+00  0.000E+00  4.47583E+01  3.151E-01  2.000E+01  2.000E+04 -1.463E+00
   1   16   10     1    10    3.8074E+05 -2.9245E+04   4.0999E+05  0.000E+00  0.000E+00  0.000E+00  4.42959E+01  3.300E-01  2.000E+01  2.000E+04 -1.462E+00
   1   16   11     1    11    4.0999E+05 -2.9803E+04   4.3979E+05  0.000E+00  0.000E+00  0.000E+00  4.38332E+01  3.446E-01  2.000E+01  2.000E+04 -1.490E+00
   1   16   12     1    12    4.3979E+05 -3.5207E+04   4.7500E+05  0.000E+00  0.000E+00  0.000E+00  4.33715E+01  3.602E-01  2.000E+01  2.000E+04 -1.760E+00
   1   15   13     1    13    4.7500E+05 -3.3785E+04   5.0878E+05  0.000E+00  0.000E+00  0.000E+00  4.29103E+01  3.762E-01  2.000E+01  2.000E+04 -1.689E+00
   1   14   14     1    14    5.0878E+05 -3.4068E+04   5.4285E+05  0.000E+00  0.000E+00  0.000E+00  4.24484E+01  3.916E-01  2.000E+01  2.000E+04 -1.703E+00
   1   13   15     1    15    5.4285E+05 -3.5740E+04   5.7859E+05  0.000E+00  0.000E+00  0.000E+00  4.19865E+01  4.070E-01  2.000E+01  2.000E+04 -1.787E+00
   1   12   16     1    16    5.7859E+05 -4.0712E+04   6.1930E+05  0.000E+00  0.000E+00  0.000E+00  4.15257E+01  4.234E-01  2.000E+01  2.000E+04 -2.036E+00
   1   12   17     1    17    6.1930E+05 -3.1885E+04   6.5119E+05  0.000E+00  0.000E+00  0.000E+00  4.10636E+01  4.386E-01  2.000E+01  2.000E+04 -1.594E+00
   1   12   18     1    18    6.5119E+05 -3.0627E+04   6.8181E+05  0.000E+00  0.000E+00  0.000E+00  4.05992E+01  4.514E-01  2.000E+01  2.000E+04 -1.531E+00
   1   12   19     1    19    6.8181E+05 -3.4871E+04   7.1669E+05  0.000E+00  0.000E+00  0.000E+00  4.01351E+01  4.646E-01  2.000E+01  2.000E+04 -1.744E+00
   1   13   20     1    20    7.1669E+05 -2.5799E+04   7.4248E+05  0.000E+00  0.000E+00  0.000E+00  3.96698E+01  4.766E-01  2.000E+01  2.000E+04 -1.290E+00
   1   14   21     1    21    7.4248E+05 -1.8796E+04   7.6128E+05  0.000E+00  0.000E+00  0.000E+00  3.92012E+01  4.853E-01  2.000E+01  2.000E+04 -9.398E-01
   1   14   22     1    22    7.6128E+05 -1.4208E+03   7.6270E+05  0.000E+00  0.000E+00  0.000E+00  3.87278E+01  4.892E-01  2.000E+01  2.000E+04 -7.104E-02
   1    9   30     2     1    5.0000E+04 -2.6505E+04   7.6505E+04  0.000E+00  0.000E+00  0.000E+00  4.02584E+01  1.334E-01  2.000E+01  2.000E+04 -1.325E+00
   1    9   29     2     2    7.6505E+04 -2.8957E+04   1.0546E+05  0.000E+00  0.000E+00  0.000E+00  4.00409E+01  1.659E-01  2.000E+01  2.000E+04 -1.448E+00
   1    9   28     2     3    1.0546E+05 -3.3204E+04   1.3867E+05  0.000E+00  0.000E+00  0.000E+00  3.98229E+01  1.979E-01  2.000E+01  2.000E+04 -1.660E+00
   1    9   27     2     4    1.3867E+05 -4.7200E+04   1.8587E+05  0.000E+00  0.000E+00  0.000E+00  3.96098E+01  2.348E-01  2.000E+01  2.000E+04 -2.360E+00
   1   10   26     2     5    1.8587E+05 -3.3094E+04   2.1896E+05  0.000E+00  0.000E+00  0.000E+00  3.93931E+01  2.681E-01  2.000E+01  2.000E+04 -1.655E+00
   1   11   25     2     6    2.1896E+05 -2.4675E+04   2.4363E+05  0.000E+00  0.000E+00  0.000E+00  3.91655E+01  2.905E-01  2.000E+01  2.000E+04 -1.234E+00
   1   12   24     2     7    2.4363E+05 -1.8063E+04   2.6170E+05  0.000E+00  0.000E+00  0.000E+00  3.89313E+01  3.063E-01  2.000E+01  2.000E+04 -9.031E-01
   1   13   23     2     8    2.6170E+05 -1.2708E+04   2.7441E+05  0.000E+00  0.000E+00  0.000E+00  3.86923E+01  3.173E-01  2.000E+01  2.000E+04 -6.354E-01
   1   14   22     2     9    2.7441E+05 -6.9923E+03   2.8140E+05  0.000E+00  0.000E+00  0.000E+00  3.84493E+01  3.243E-01  2.000E+01  2.000E+04 -3.496E-01
   1   14   22     3     1    1.0441E+06 -1.5016E+04   1.0591E+06  0.000E+00  0.000E+00  0.000E+00  3.80481E+01  4.925E-01  2.000E+01  2.000E+04 -7.508E-01
   1   15   23     3     2    1.0591E+06 -2.2243E+04   1.0814E+06  0.000E+00  0.000E+00  0.000E+00  3.71644E+01  4.977E-01  2.000E+01  2.000E+04 -1.112E+00
   1   15   24     3     3    1.0814E+06 -1.8529E+04   1.0999E+06  0.000E+00  0.000E+00  0.000E+00  3.62812E+01  5.034E-01  2.000E+01  2.000E+04 -9.265E-01
   1   15   25     3     4    1.0999E+06 -1.8288E+04   1.1182E+06  0.000E+00  0.000E+00  0.000E+00  3.53974E+01  5.085E-01  2.000E+01  2.000E+04 -9.144E-01
   1   15   26     3     5    1.1182E+06 -2.1239E+04   1.1394E+06  0.000E+00  0.000E+00  0.000E+00  3.45139E+01  5.139E-01  2.000E+01  2.000E+04 -1.062E+00
   1   16   27     3     6    1.1394E+06 -2.7798E+04   1.1672E+06  0.000E+00  0.000E+00  0.000E+00  3.36317E+01  5.206E-01  2.000E+01  2.000E+04 -1.390E+00
   1   17   28     3     7    1.1672E+06 -3.4596E+04   1.2018E+06  0.000E+00  0.000E+00  0.000E+00  3.27512E+01  5.290E-01  2.000E+01  2.000E+04 -1.730E+00
   1   18   29     3     8    1.2018E+06 -4.5491E+04   1.2473E+06  0.000E+00  0.000E+00  0.000E+00  3.18730E+01  5.396E-01  2.000E+01  2.000E+04 -2.275E+00
   1   18   30     3     9    1.2473E+06 -4.2607E+04   1.2899E+06  0.000E+00  0.000E+00  0.000E+00  3.09956E+01  5.512E-01  2.000E+01  2.000E+04 -2.130E+00



1
              HEAD IN LAYER   1 AT END OF TIME STEP   1 IN STRESS PERIOD    4
  ---------------------------------------------------------------------------

          1      2      3      4      5      6      7      8      9     10
         11     12     13     14     15     16     17     18     19     20
         21     22     23     24     25     26     27     28     29     30
 .........................................................................
   1  ****** ****** ****** ****** ****** ****** ****** ****** ****** ******
      ****** ****** ****** ****** ****** ****** ****** ****** ****** ******
      ****** ****** ****** ****** ****** ****** ****** ****** ****** ******
   2  ****** ****** ****** ****** ****** ****** ****** ****** ****** ******
      ****** ****** ****** ****** ****** ****** ****** ****** ****** ******
      ****** ****** ****** ****** ****** ****** ****** ****** ****** ******
   3  ****** ****** ****** ****** ****** ****** ****** ****** ****** ******
      ****** ****** ****** ****** ****** ****** ****** ****** ****** ******
      ****** ****** ****** ****** ****** ****** ****** ****** ****** ******
   4  ****** ****** ****** ****** ****** ****** ****** ****** ****** ******
      ****** ****** ****** ****** ****** ****** ****** ****** ****** ******
      ****** ****** ****** ****** ****** ****** ****** ****** ****** ******
   5  ****** ****** ****** ****** ****** ****** ****** ****** ****** ******
      ****** ****** ****** ****** ****** ****** ****** ****** ****** ******
      ****** ****** ****** ****** ****** ****** ****** ****** ****** ******
   6  ****** ****** ****** ****** ****** ****** ****** ****** ****** ******
      ****** ****** ****** ****** ****** ****** ****** ****** ****** ******
      ****** ****** ****** ****** ****** ****** ****** ****** ****** ******
   7  ****** ****** ****** ****** ****** ****** ****** ****** ****** ******
      ****** ****** ****** ****** ****** ****** ****** ****** ****** ******
      ****** ****** ****** ****** ****** ****** ****** ****** ****** ******
   8  ****** ****** ****** ****** ****** ****** ****** ****** ****** ******
      ****** ****** ****** ****** ****** ****** ****** ****** ****** ******
      ****** ****** ****** ****** ****** ****** ****** ****** ****** ******
   9  ****** ****** ****** ****** ****** ****** ****** ****** ****** ******
      ****** ****** ****** ****** ****** ****** ****** ****** ****** ******
      ****** ****** ****** ****** ****** ****** ****** ****** ****** ******
  10  ****** ****** ****** ****** ****** ****** ****** ****** ****** ******
      ****** ****** ****** ****** ****** ****** ****** ****** ****** ******
      ****** ****** ****** ****** ****** ****** ****** ****** ****** ******
  11  ****** ****** ****** ****** ****** ****** ****** ****** ****** ******
      ****** ****** ****** ****** ****** ****** ****** ****** ****** ******
      ****** ****** ****** ****** ****** ****** ****** ****** ****** ******
  12  ****** ****** ****** ****** ****** ****** ****** ****** ****** ******
      ****** ****** ****** ****** ****** ****** ****** ****** ****** ******
      ****** ****** ****** ****** ****** ****** ****** ****** ****** ******
  13  ****** ****** ****** ****** ****** ****** ****** ****** ****** ******
      ****** ****** ****** ****** ****** ****** ****** ****** ****** ******
      ****** ****** ****** ****** ****** ****** ****** ****** ****** ******
  14  ****** ****** ****** ****** ****** ****** ****** ****** ****** ******
      ****** ****** ****** ****** ****** ****** ****** ****** ****** ******
      ****** ****** ****** ****** ****** ****** ****** ****** ****** ******
  15  ****** ****** ****** ****** ****** ****** ****** ****** ****** ******
      ****** ****** ****** ****** ****** ****** ****** ****** ****** ******
      ****** ****** ****** ****** ****** ****** ****** ****** ****** ******
  16  ****** ****** ****** ****** ****** ****** ****** ****** ****** ******
      ****** ****** ****** ****** ****** ****** ****** ****** ****** ******
      ****** ****** ****** ****** ****** ****** ****** ****** ****** ******
  17  ****** ****** ****** ****** ****** ****** ****** ****** ****** ******
      ****** ****** ****** ****** ****** ****** ****** ****** ****** ******
      ****** ****** ****** ****** ****** ****** ****** ****** ****** ******
  18  ****** ****** ****** ****** ****** ****** ****** ****** ****** ******
      ****** ****** ****** ****** ****** ****** ****** ****** ****** ******
      ****** ****** ****** ****** ****** ****** ****** ****** ****** ******
  19  ****** ****** ****** ****** ****** ****** ****** ****** ****** ******
      ****** ****** ****** ****** ****** ****** ****** ****** ****** ******
      ****** ****** ****** ****** ****** ****** ****** ****** ****** ******
  20  ****** ****** ****** ****** ****** ****** ****** ****** ****** ******
      ****** ****** ****** ****** ****** ****** ****** ****** ****** ******
      ****** ****** ****** ****** ****** ****** ****** ****** ****** ******
  21  ****** ****** ****** ****** ****** ****** ****** ****** ****** ******
      ****** ****** ****** ****** ****** ****** ****** ****** ****** ******
      ****** ****** ****** ****** ****** ****** ****** ****** ****** ******
  22  ****** ****** ****** ****** ****** ****** ****** ****** ****** ******
      ****** ****** ****** ****** ****** ****** ****** ****** ****** ******
      ****** ****** ****** ****** ****** ****** ****** ****** ****** ******
  23  ****** ****** ****** ****** ****** ****** ****** ****** ****** ******
      ****** ****** ****** ****** ****** ****** ****** ****** ****** ******
      ****** ****** ****** ****** ****** ****** ****** ****** ****** ******
  24  ****** ****** ****** ****** ****** ****** ****** ****** ****** ******
      ****** ****** ****** ****** ****** ****** ****** ****** ****** ******
      ****** ****** ****** ****** ****** ****** ****** ****** ****** ******
  25  ****** ****** ****** ****** ****** ****** ****** ****** ****** ******
      ****** ****** ****** ****** ****** ****** ****** ****** ****** ******
      ****** ****** ****** ****** ****** ****** ****** ****** ****** ******

 HEAD WILL BE SAVED ON UNIT   51 AT END OF TIME STEP    1, STRESS PERIOD    4
1
  VOLUMETRIC BUDGET FOR ENTIRE MODEL AT END OF TIME STEP    1, STRESS PERIOD   4
  ------------------------------------------------------------------------------

     CUMULATIVE VOLUMES      L**3       RATES FOR THIS TIME STEP      L**3/T
     ------------------                 ------------------------

           IN:                                      IN:
           ---                                      ---
             STORAGE =    20456304.5444               STORAGE =         148.1246
       CONSTANT HEAD =   430412418.0091         CONSTANT HEAD =     1193599.2633
               WELLS =           0.0000                 WELLS =           0.0000
            RECHARGE =     8804400.0000              RECHARGE =       27600.0000
      STREAM LEAKAGE =           0.0000        STREAM LEAKAGE =           0.0000

            TOTAL IN =   459673122.5535              TOTAL IN =     1221347.3879

          OUT:                                     OUT:
          ----                                     ----
             STORAGE =      318043.1492               STORAGE =        1441.4308
       CONSTANT HEAD =           0.0000         CONSTANT HEAD =           0.0000
               WELLS =    29427568.2500                 WELLS =       80000.0000
            RECHARGE =           0.0000              RECHARGE =           0.0000
      STREAM LEAKAGE =   429927517.3104        STREAM LEAKAGE =     1139905.9346

           TOTAL OUT =   459673128.7096             TOTAL OUT =     1221347.3655

            IN - OUT =          -6.1561              IN - OUT =       2.2364E-02

 PERCENT DISCREPANCY =          -0.00     PERCENT DISCREPANCY =           0.00






         TIME SUMMARY AT END OF TIME STEP    1 IN STRESS PERIOD    4
                    SECONDS     MINUTES      HOURS       DAYS        YEARS
                    -----------------------------------------------------------
   TIME STEP LENGTH 7.86240E+06 1.31040E+05  2184.0      91.000     0.24914    
 STRESS PERIOD TIME 7.86240E+06 1.31040E+05  2184.0      91.000     0.24914    
         TOTAL TIME 3.15360E+07 5.25600E+05  8760.0      365.00     0.99932    
1
1
                            STRESS PERIOD NO.    5, LENGTH =   92.00000    
                            -----------------------------------------------

                              NUMBER OF TIME STEPS =     1

                               MULTIPLIER FOR DELT =     1.500

                            INITIAL TIME STEP SIZE =   92.00000    

 WELL NO.  LAYER   ROW   COL   STRESS RATE         
 --------------------------------------------------
      1      1      8     16     -0.3000E+05
      2      1     21     24     -0.5000E+05

      2 WELLS

                 RECHARGE =  5.000000E-04

 REUSING STREAM SEGMENT DATA FROM LAST STRESS PERIOD
 
 SOLVING FOR HEAD 


     5 CALLS TO PCG ROUTINE FOR TIME STEP   1 IN STRESS PERIOD    5
    20 TOTAL ITERATIONS

 OUTPUT CONTROL FOR STRESS PERIOD    5   TIME STEP    1
    SAVE BUDGET
    SAVE HEAD FOR ALL LAYERS
    PRINT HEAD FOR ALL LAYERS
 UBDSV2 SAVING "STREAMFLOW OUT  " ON UNIT  50 AT TIME STEP  1, STRESS PERIOD   5



 STREAM LISTING     PERIOD      5   STEP        1

 LAYER ROW COL. STREAM  RCH.  FLOW INTO     FLOW TO   FLOW OUT OF   OVRLND.     DIRECT     STREAM       STREAM     STREAM     STREAM   STREAMBED  STREAMBED
                SEG.NO.  NO.  STRM. RCH.    AQUIFER    STRM. RCH.    RUNOFF     PRECIP       ET          HEAD       DEPTH      WIDTH   CONDCTNC.   GRADIENT

   1   13    1     1     1    1.0000E+05 -2.7530E+04   1.2753E+05  0.000E+00  0.000E+00  0.000E+00  4.84177E+01  1.563E-01  2.000E+01  2.000E+04 -1.376E+00
   1   13    2     1     2    1.2753E+05 -3.7178E+04   1.6471E+05  0.000E+00  0.000E+00  0.000E+00  4.79657E+01  1.816E-01  2.000E+01  2.000E+04 -1.859E+00
   1   14    3     1     3    1.6471E+05 -3.2689E+04   1.9740E+05  0.000E+00  0.000E+00  0.000E+00  4.75134E+01  2.065E-01  2.000E+01  2.000E+04 -1.634E+00
   1   15    4     1     4    1.9740E+05 -3.1957E+04   2.2935E+05  0.000E+00  0.000E+00  0.000E+00  4.70575E+01  2.279E-01  2.000E+01  2.000E+04 -1.598E+00
   1   16    5     1     5    2.2935E+05 -3.3547E+04   2.6290E+05  0.000E+00  0.000E+00  0.000E+00  4.66006E+01  2.483E-01  2.000E+01  2.000E+04 -1.677E+00
   1   16    6     1     6    2.6290E+05 -2.9272E+04   2.9217E+05  0.000E+00  0.000E+00  0.000E+00  4.61419E+01  2.669E-01  2.000E+01  2.000E+04 -1.464E+00
   1   16    7     1     7    2.9217E+05 -2.9064E+04   3.2124E+05  0.000E+00  0.000E+00  0.000E+00  4.56811E+01  2.834E-01  2.000E+01  2.000E+04 -1.453E+00
   1   16    8     1     8    3.2124E+05 -2.9214E+04   3.5045E+05  0.000E+00  0.000E+00  0.000E+00  4.52197E+01  2.992E-01  2.000E+01  2.000E+04 -1.461E+00
   1   16    9     1     9    3.5045E+05 -2.9262E+04   3.7971E+05  0.000E+00  0.000E+00  0.000E+00  4.47578E+01  3.146E-01  2.000E+01  2.000E+04 -1.463E+00
   1   16   10     1    10    3.7971E+05 -2.9256E+04   4.0897E+05  0.000E+00  0.000E+00  0.000E+00  4.42954E+01  3.295E-01  2.000E+01  2.000E+04 -1.463E+00
   1   16   11     1    11    4.0897E+05 -2.9818E+04   4.3879E+05  0.000E+00  0.000E+00  0.000E+00  4.38327E+01  3.441E-01  2.000E+01  2.000E+04 -1.491E+00
   1   16   12     1    12    4.3879E+05 -3.5206E+04   4.7399E+05  0.000E+00  0.000E+00  0.000E+00  4.33711E+01  3.597E-01  2.000E+01  2.000E+04 -1.760E+00
   1   15   13     1    13    4.7399E+05 -3.3640E+04   5.0763E+05  0.000E+00  0.000E+00  0.000E+00  4.29098E+01  3.757E-01  2.000E+01  2.000E+04 -1.682E+00
   1   14   14     1    14    5.0763E+05 -3.3854E+04   5.4149E+05  0.000E+00  0.000E+00  0.000E+00  4.24478E+01  3.910E-01  2.000E+01  2.000E+04 -1.693E+00
   1   13   15     1    15    5.4149E+05 -3.5500E+04   5.7699E+05  0.000E+00  0.000E+00  0.000E+00  4.19859E+01  4.063E-01  2.000E+01  2.000E+04 -1.775E+00
   1   12   16     1    16    5.7699E+05 -4.0476E+04   6.1747E+05  0.000E+00  0.000E+00  0.000E+00  4.15249E+01  4.227E-01  2.000E+01  2.000E+04 -2.024E+00
   1   12   17     1    17    6.1747E+05 -3.1682E+04   6.4915E+05  0.000E+00  0.000E+00  0.000E+00  4.10628E+01  4.378E-01  2.000E+01  2.000E+04 -1.584E+00
   1   12   18     1    18    6.4915E+05 -3.0423E+04   6.7957E+05  0.000E+00  0.000E+00  0.000E+00  4.05983E+01  4.506E-01  2.000E+01  2.000E+04 -1.521E+00
   1   12   19     1    19    6.7957E+05 -3.4644E+04   7.1421E+05  0.000E+00  0.000E+00  0.000E+00  4.01341E+01  4.637E-01  2.000E+01  2.000E+04 -1.732E+00
   1   13   20     1    20    7.1421E+05 -2.5534E+04   7.3975E+05  0.000E+00  0.000E+00  0.000E+00  3.96688E+01  4.756E-01  2.000E+01  2.000E+04 -1.277E+00
   1   14   21     1    21    7.3975E+05 -1.8466E+04   7.5821E+05  0.000E+00  0.000E+00  0.000E+00  3.92001E+01  4.842E-01  2.000E+01  2.000E+04 -9.233E-01
   1   14   22     1    22    7.5821E+05 -1.2858E+03   7.5950E+05  0.000E+00  0.000E+00  0.000E+00  3.87266E+01  4.880E-01  2.000E+01  2.000E+04 -6.429E-02
   1    9   30     2     1    5.0000E+04 -2.6353E+04   7.6353E+04  0.000E+00  0.000E+00  0.000E+00  4.02583E+01  1.333E-01  2.000E+01  2.000E+04 -1.318E+00
   1    9   29     2     2    7.6353E+04 -2.8806E+04   1.0516E+05  0.000E+00  0.000E+00  0.000E+00  4.00407E+01  1.657E-01  2.000E+01  2.000E+04 -1.440E+00
   1    9   28     2     3    1.0516E+05 -3.3049E+04   1.3821E+05  0.000E+00  0.000E+00  0.000E+00  3.98226E+01  1.976E-01  2.000E+01  2.000E+04 -1.652E+00
   1    9   27     2     4    1.3821E+05 -4.7015E+04   1.8522E+05  0.000E+00  0.000E+00  0.000E+00  3.96093E+01  2.343E-01  2.000E+01  2.000E+04 -2.351E+00
   1   10   26     2     5    1.8522E+05 -3.2895E+04   2.1812E+05  0.000E+00  0.000E+00  0.000E+00  3.93925E+01  2.675E-01  2.000E+01  2.000E+04 -1.645E+00
   1   11   25     2     6    2.1812E+05 -2.4476E+04   2.4259E+05  0.000E+00  0.000E+00  0.000E+00  3.91647E+01  2.897E-01  2.000E+01  2.000E+04 -1.224E+00
   1   12   24     2     7    2.4259E+05 -1.7873E+04   2.6047E+05  0.000E+00  0.000E+00  0.000E+00  3.89304E+01  3.054E-01  2.000E+01  2.000E+04 -8.936E-01
   1   13   23     2     8    2.6047E+05 -1.2530E+04   2.7300E+05  0.000E+00  0.000E+00  0.000E+00  3.86914E+01  3.164E-01  2.000E+01  2.000E+04 -6.265E-01
   1   14   22     2     9    2.7300E+05 -6.8538E+03   2.7985E+05  0.000E+00  0.000E+00  0.000E+00  3.84482E+01  3.232E-01  2.000E+01  2.000E+04 -3.427E-01
   1   14   22     3     1    1.0394E+06 -1.4884E+04   1.0542E+06  0.000E+00  0.000E+00  0.000E+00  3.80467E+01  4.912E-01  2.000E+01  2.000E+04 -7.442E-01
   1   15   23     3     2    1.0542E+06 -2.1706E+04   1.0759E+06  0.000E+00  0.000E+00  0.000E+00  3.71630E+01  4.963E-01  2.000E+01  2.000E+04 -1.085E+00
   1   15   24     3     3    1.0759E+06 -1.8072E+04   1.0940E+06  0.000E+00  0.000E+00  0.000E+00  3.62796E+01  5.018E-01  2.000E+01  2.000E+04 -9.036E-01
   1   15   25     3     4    1.0940E+06 -1.7869E+04   1.1119E+06  0.000E+00  0.000E+00  0.000E+00  3.53957E+01  5.068E-01  2.000E+01  2.000E+04 -8.935E-01
   1   15   26     3     5    1.1119E+06 -2.0850E+04   1.1327E+06  0.000E+00  0.000E+00  0.000E+00  3.45121E+01  5.121E-01  2.000E+01  2.000E+04 -1.043E+00
   1   16   27     3     6    1.1327E+06 -2.7200E+04   1.1599E+06  0.000E+00  0.000E+00  0.000E+00  3.36298E+01  5.187E-01  2.000E+01  2.000E+04 -1.360E+00
   1   17   28     3     7    1.1599E+06 -3.3917E+04   1.1939E+06  0.000E+00  0.000E+00  0.000E+00  3.27491E+01  5.269E-01  2.000E+01  2.000E+04 -1.696E+00
   1   18   29     3     8    1.1939E+06 -4.4796E+04   1.2386E+06  0.000E+00  0.000E+00  0.000E+00  3.18708E+01  5.374E-01  2.000E+01  2.000E+04 -2.240E+00
   1   18   30     3     9    1.2386E+06 -4.2139E+04   1.2808E+06  0.000E+00  0.000E+00  0.000E+00  3.09933E+01  5.489E-01  2.000E+01  2.000E+04 -2.107E+00



1
              HEAD IN LAYER   1 AT END OF TIME STEP   1 IN STRESS PERIOD    5
  ---------------------------------------------------------------------------

          1      2      3      4      5      6      7      8      9     10
         11     12     13     14     15     16     17     18     19     20
         21     22     23     24     25     26     27     28     29     30
 .........................................................................
   1  ****** ****** ****** ****** ****** ****** ****** ****** ****** ******
      ****** ****** ****** ****** ****** ****** ****** ****** ****** ******
      ****** ****** ****** ****** ****** ****** ****** ****** ****** ******
   2  ****** ****** ****** ****** ****** ****** ****** ****** ****** ******
      ****** ****** ****** ****** ****** ****** ****** ****** ****** ******
      ****** ****** ****** ****** ****** ****** ****** ****** ****** ******
   3  ****** ****** ****** ****** ****** ****** ****** ****** ****** ******
      ****** ****** ****** ****** ****** ****** ****** ****** ****** ******
      ****** ****** ****** ****** ****** ****** ****** ****** ****** ******
   4  ****** ****** ****** ****** ****** ****** ****** ****** ****** ******
      ****** ****** ****** ****** ****** ****** ****** ****** ****** ******
      ****** ****** ****** ****** ****** ****** ****** ****** ****** ******
   5  ****** ****** ****** ****** ****** ****** ****** ****** ****** ******
      ****** ****** ****** ****** ****** ****** ****** ****** ****** ******
      ****** ****** ****** ****** ****** ****** ****** ****** ****** ******
   6  ****** ****** ****** ****** ****** ****** ****** ****** ****** ******
      ****** ****** ****** ****** ****** ****** ****** ****** ****** ******
      ****** ****** ****** ****** ****** ****** ****** ****** ****** ******
   7  ****** ****** ****** ****** ****** ****** ****** ****** ****** ******
      ****** ****** ****** ****** ****** ****** ****** ****** ****** ******
      ****** ****** ****** ****** ****** ****** ****** ****** ****** ******
   8  ****** ****** ****** ****** ****** ****** ****** ****** ****** ******
      ****** ****** ****** ****** ****** ****** ****** ****** ****** ******
      ****** ****** ****** ****** ****** ****** ****** ****** ****** ******
   9  ****** ****** ****** ****** ****** ****** ****** ****** ****** ******
      ****** ****** ****** ****** ****** ****** ****** ****** ****** ******
      ****** ****** ****** ****** ****** ****** ****** ****** ****** ******
  10  ****** ****** ****** ****** ****** ****** ****** ****** ****** ******
      ****** ****** ****** ****** ****** ****** ****** ****** ****** ******
      ****** ****** ****** ****** ****** ****** ****** ****** ****** ******
  11  ****** ****** ****** ****** ****** ****** ****** ****** ****** ******
      ****** ****** ****** ****** ****** ****** ****** ****** ****** ******
      ****** ****** ****** ****** ****** ****** ****** ****** ****** ******
  12  ****** ****** ****** ****** ****** ****** ****** ****** ****** ******
      ****** ****** ****** ****** ****** ****** ****** ****** ****** ******
      ****** ****** ****** ****** ****** ****** ****** ****** ****** ******
  13  ****** ****** ****** ****** ****** ****** ****** ****** ****** ******
      ****** ****** ****** ****** ****** ****** ****** ****** ****** ******
      ****** ****** ****** ****** ****** ****** ****** ****** ****** ******
  14  ****** ****** ****** ****** ****** ****** ****** ****** ****** ******
      ****** ****** ****** ****** ****** ****** ****** ****** ****** ******
      ****** ****** ****** ****** ****** ****** ****** ****** ****** ******
  15  ****** ****** ****** ****** ****** ****** ****** ****** ****** ******
      ****** ****** ****** ****** ****** ****** ****** ****** ****** ******
      ****** ****** ****** ****** ****** ****** ****** ****** ****** ******
  16  ****** ****** ****** ****** ****** ****** ****** ****** ****** ******
      ****** ****** ****** ****** ****** ****** ****** ****** ****** ******
      ****** ****** ****** ****** ****** ****** ****** ****** ****** ******
  17  ****** ****** ****** ****** ****** ****** ****** ****** ****** ******
      ****** ****** ****** ****** ****** ****** ****** ****** ****** ******
      ****** ****** ****** ****** ****** ****** ****** ****** ****** ******
  18  ****** ****** ****** ****** ****** ****** ****** ****** ****** ******
      ****** ****** ****** ****** ****** ****** ****** ****** ****** ******
      ****** ****** ****** ****** ****** ****** ****** ****** ****** ******
  19  ****** ****** ****** ****** ****** ****** ****** ****** ****** ******
      ****** ****** ****** ****** ****** ****** ****** ****** ****** ******
      ****** ****** ****** ****** ****** ****** ****** ****** ****** ******
  20  ****** ****** ****** ****** ****** ****** ****** ****** ****** ******
      ****** ****** ****** ****** ****** ****** ****** ****** ****** ******
      ****** ****** ****** ****** ****** ****** ****** ****** ****** ******
  21  ****** ****** ****** ****** ****** ****** ****** ****** ****** ******
      ****** ****** ****** ****** ****** ****** ****** ****** ****** ******
      ****** ****** ****** ****** ****** ****** ****** ****** ****** ******
  22  ****** ****** ****** ****** ****** ****** ****** ****** ****** ******
      ****** ****** ****** ****** ****** ****** ****** ****** ****** ******
      ****** ****** ****** ****** ****** ****** ****** ****** ****** ******
  23  ****** ****** ****** ****** ****** ****** ****** ****** ****** ******
      ****** ****** ****** ****** ****** ****** ****** ****** ****** ******
      ****** ****** ****** ****** ****** ****** ****** ****** ****** ******
  24  ****** ****** ****** ****** ****** ****** ****** ****** ****** ******
      ****** ****** ****** ****** ****** ****** ****** ****** ****** ******
      ****** ****** ****** ****** ****** ****** ****** ****** ****** ******
  25  ****** ****** ****** ****** ****** ****** ****** ****** ****** ******
      ****** ****** ****** ****** ****** ****** ****** ****** ****** ******
      ****** ****** ****** ****** ****** ****** ****** ****** ****** ******

 HEAD WILL BE SAVED ON UNIT   51 AT END OF TIME STEP    1, STRESS PERIOD    5
1
  VOLUMETRIC BUDGET FOR ENTIRE MODEL AT END OF TIME STEP    1, STRESS PERIOD   5
  ------------------------------------------------------------------------------

     CUMULATIVE VOLUMES      L**3       RATES FOR THIS TIME STEP      L**3/T
     ------------------                 ------------------------

           IN:                                      IN:
           ---                                      ---
             STORAGE =    20546943.8711               STORAGE =         985.2101
       CONSTANT HEAD =   540464724.4688         CONSTANT HEAD =     1196220.7224
               WELLS =           0.0000                 WELLS =           0.0000
            RECHARGE =    10074000.0000              RECHARGE =       13800.0000
      STREAM LEAKAGE =           0.0000        STREAM LEAKAGE =           0.0000

            TOTAL IN =   571085668.3400              TOTAL IN =     1211005.9325

          OUT:                                     OUT:
          ----                                     ----
             STORAGE =      338207.6609               STORAGE =         219.1795
       CONSTANT HEAD =           0.0000         CONSTANT HEAD =           0.0000
               WELLS =    36787568.2500                 WELLS =       80000.0000
            RECHARGE =           0.0000              RECHARGE =           0.0000
      STREAM LEAKAGE =   533959900.1137        STREAM LEAKAGE =     1130786.7696

           TOTAL OUT =   571085676.0245             TOTAL OUT =     1211005.9491

            IN - OUT =          -7.6845              IN - OUT =      -1.6614E-02

 PERCENT DISCREPANCY =          -0.00     PERCENT DISCREPANCY =          -0.00






         TIME SUMMARY AT END OF TIME STEP    1 IN STRESS PERIOD    5
                    SECONDS     MINUTES      HOURS       DAYS        YEARS
                    -----------------------------------------------------------
   TIME STEP LENGTH 7.94880E+06 1.32480E+05  2208.0      92.000     0.25188    
 STRESS PERIOD TIME 7.94880E+06 1.32480E+05  2208.0      92.000     0.25188    
         TOTAL TIME 3.94848E+07 6.58080E+05  10968.      457.00      1.2512    
1
1
                            STRESS PERIOD NO.    6, LENGTH =   91.00000    
                            -----------------------------------------------

                              NUMBER OF TIME STEPS =     1

                               MULTIPLIER FOR DELT =     1.500

                            INITIAL TIME STEP SIZE =   91.00000    

 WELL NO.  LAYER   ROW   COL   STRESS RATE         
 --------------------------------------------------
      1      1      8     16     -0.3000E+05
      2      1     21     24       0.000    
      3      1     23     11     -0.5250E+05

      3 WELLS

                 RECHARGE =  2.000000E-03

 REUSING STREAM SEGMENT DATA FROM LAST STRESS PERIOD
 
 SOLVING FOR HEAD 


     6 CALLS TO PCG ROUTINE FOR TIME STEP   1 IN STRESS PERIOD    6
    23 TOTAL ITERATIONS

 OUTPUT CONTROL FOR STRESS PERIOD    6   TIME STEP    1
    SAVE BUDGET
    SAVE HEAD FOR ALL LAYERS
    PRINT HEAD FOR ALL LAYERS
 UBDSV2 SAVING "STREAMFLOW OUT  " ON UNIT  50 AT TIME STEP  1, STRESS PERIOD   6



 STREAM LISTING     PERIOD      6   STEP        1

 LAYER ROW COL. STREAM  RCH.  FLOW INTO     FLOW TO   FLOW OUT OF   OVRLND.     DIRECT     STREAM       STREAM     STREAM     STREAM   STREAMBED  STREAMBED
                SEG.NO.  NO.  STRM. RCH.    AQUIFER    STRM. RCH.    RUNOFF     PRECIP       ET          HEAD       DEPTH      WIDTH   CONDCTNC.   GRADIENT

   1   13    1     1     1    1.0000E+05 -2.8098E+04   1.2810E+05  0.000E+00  0.000E+00  0.000E+00  4.84179E+01  1.565E-01  2.000E+01  2.000E+04 -1.405E+00
   1   13    2     1     2    1.2810E+05 -3.7871E+04   1.6597E+05  0.000E+00  0.000E+00  0.000E+00  4.79664E+01  1.823E-01  2.000E+01  2.000E+04 -1.894E+00
   1   14    3     1     3    1.6597E+05 -3.3291E+04   1.9926E+05  0.000E+00  0.000E+00  0.000E+00  4.75144E+01  2.076E-01  2.000E+01  2.000E+04 -1.665E+00
   1   15    4     1     4    1.9926E+05 -3.2429E+04   2.3169E+05  0.000E+00  0.000E+00  0.000E+00  4.70588E+01  2.293E-01  2.000E+01  2.000E+04 -1.621E+00
   1   16    5     1     5    2.3169E+05 -3.3733E+04   2.6542E+05  0.000E+00  0.000E+00  0.000E+00  4.66021E+01  2.498E-01  2.000E+01  2.000E+04 -1.687E+00
   1   16    6     1     6    2.6542E+05 -2.9364E+04   2.9479E+05  0.000E+00  0.000E+00  0.000E+00  4.61434E+01  2.684E-01  2.000E+01  2.000E+04 -1.468E+00
   1   16    7     1     7    2.9479E+05 -2.9062E+04   3.2385E+05  0.000E+00  0.000E+00  0.000E+00  4.56825E+01  2.848E-01  2.000E+01  2.000E+04 -1.453E+00
   1   16    8     1     8    3.2385E+05 -2.9107E+04   3.5295E+05  0.000E+00  0.000E+00  0.000E+00  4.52211E+01  3.006E-01  2.000E+01  2.000E+04 -1.455E+00
   1   16    9     1     9    3.5295E+05 -2.9053E+04   3.8201E+05  0.000E+00  0.000E+00  0.000E+00  4.47590E+01  3.158E-01  2.000E+01  2.000E+04 -1.453E+00
   1   16   10     1    10    3.8201E+05 -2.8974E+04   4.1098E+05  0.000E+00  0.000E+00  0.000E+00  4.42965E+01  3.306E-01  2.000E+01  2.000E+04 -1.449E+00
   1   16   11     1    11    4.1098E+05 -2.9510E+04   4.4049E+05  0.000E+00  0.000E+00  0.000E+00  4.38336E+01  3.450E-01  2.000E+01  2.000E+04 -1.476E+00
   1   16   12     1    12    4.4049E+05 -3.4923E+04   4.7542E+05  0.000E+00  0.000E+00  0.000E+00  4.33718E+01  3.604E-01  2.000E+01  2.000E+04 -1.746E+00
   1   15   13     1    13    4.7542E+05 -3.3984E+04   5.0940E+05  0.000E+00  0.000E+00  0.000E+00  4.29106E+01  3.765E-01  2.000E+01  2.000E+04 -1.699E+00
   1   14   14     1    14    5.0940E+05 -3.4503E+04   5.4390E+05  0.000E+00  0.000E+00  0.000E+00  4.24488E+01  3.920E-01  2.000E+01  2.000E+04 -1.725E+00
   1   13   15     1    15    5.4390E+05 -3.6276E+04   5.8018E+05  0.000E+00  0.000E+00  0.000E+00  4.19871E+01  4.076E-01  2.000E+01  2.000E+04 -1.814E+00
   1   12   16     1    16    5.8018E+05 -4.1252E+04   6.2143E+05  0.000E+00  0.000E+00  0.000E+00  4.15265E+01  4.242E-01  2.000E+01  2.000E+04 -2.063E+00
   1   12   17     1    17    6.2143E+05 -3.2360E+04   6.5379E+05  0.000E+00  0.000E+00  0.000E+00  4.10646E+01  4.396E-01  2.000E+01  2.000E+04 -1.618E+00
   1   12   18     1    18    6.5379E+05 -3.1111E+04   6.8490E+05  0.000E+00  0.000E+00  0.000E+00  4.06003E+01  4.526E-01  2.000E+01  2.000E+04 -1.556E+00
   1   12   19     1    19    6.8490E+05 -3.5412E+04   7.2031E+05  0.000E+00  0.000E+00  0.000E+00  4.01364E+01  4.660E-01  2.000E+01  2.000E+04 -1.771E+00
   1   13   20     1    20    7.2031E+05 -2.6478E+04   7.4679E+05  0.000E+00  0.000E+00  0.000E+00  3.96714E+01  4.782E-01  2.000E+01  2.000E+04 -1.324E+00
   1   14   21     1    21    7.4679E+05 -1.9715E+04   7.6651E+05  0.000E+00  0.000E+00  0.000E+00  3.92031E+01  4.871E-01  2.000E+01  2.000E+04 -9.857E-01
   1   14   22     1    22    7.6651E+05 -1.8060E+03   7.6831E+05  0.000E+00  0.000E+00  0.000E+00  3.87299E+01  4.913E-01  2.000E+01  2.000E+04 -9.030E-02
   1    9   30     2     1    5.0000E+04 -2.6843E+04   7.6843E+04  0.000E+00  0.000E+00  0.000E+00  4.02586E+01  1.336E-01  2.000E+01  2.000E+04 -1.342E+00
   1    9   29     2     2    7.6843E+04 -2.9293E+04   1.0614E+05  0.000E+00  0.000E+00  0.000E+00  4.00415E+01  1.665E-01  2.000E+01  2.000E+04 -1.465E+00
   1    9   28     2     3    1.0614E+05 -3.3548E+04   1.3968E+05  0.000E+00  0.000E+00  0.000E+00  3.98238E+01  1.988E-01  2.000E+01  2.000E+04 -1.677E+00
   1    9   27     2     4    1.3968E+05 -4.7614E+04   1.8730E+05  0.000E+00  0.000E+00  0.000E+00  3.96109E+01  2.359E-01  2.000E+01  2.000E+04 -2.381E+00
   1   10   26     2     5    1.8730E+05 -3.3544E+04   2.2084E+05  0.000E+00  0.000E+00  0.000E+00  3.93944E+01  2.694E-01  2.000E+01  2.000E+04 -1.677E+00
   1   11   25     2     6    2.2084E+05 -2.5131E+04   2.4597E+05  0.000E+00  0.000E+00  0.000E+00  3.91670E+01  2.920E-01  2.000E+01  2.000E+04 -1.257E+00
   1   12   24     2     7    2.4597E+05 -1.8509E+04   2.6448E+05  0.000E+00  0.000E+00  0.000E+00  3.89331E+01  3.081E-01  2.000E+01  2.000E+04 -9.254E-01
   1   13   23     2     8    2.6448E+05 -1.3148E+04   2.7763E+05  0.000E+00  0.000E+00  0.000E+00  3.86945E+01  3.195E-01  2.000E+01  2.000E+04 -6.574E-01
   1   14   22     2     9    2.7763E+05 -7.3715E+03   2.8500E+05  0.000E+00  0.000E+00  0.000E+00  3.84517E+01  3.267E-01  2.000E+01  2.000E+04 -3.686E-01
   1   14   22     3     1    1.0533E+06 -1.5391E+04   1.0687E+06  0.000E+00  0.000E+00  0.000E+00  3.80507E+01  4.951E-01  2.000E+01  2.000E+04 -7.695E-01
   1   15   23     3     2    1.0687E+06 -2.3858E+04   1.0926E+06  0.000E+00  0.000E+00  0.000E+00  3.71673E+01  5.006E-01  2.000E+01  2.000E+04 -1.193E+00
   1   15   24     3     3    1.0926E+06 -1.9905E+04   1.1125E+06  0.000E+00  0.000E+00  0.000E+00  3.62845E+01  5.067E-01  2.000E+01  2.000E+04 -9.952E-01
   1   15   25     3     4    1.1125E+06 -1.9535E+04   1.1320E+06  0.000E+00  0.000E+00  0.000E+00  3.54010E+01  5.121E-01  2.000E+01  2.000E+04 -9.767E-01
   1   15   26     3     5    1.1320E+06 -2.2365E+04   1.1544E+06  0.000E+00  0.000E+00  0.000E+00  3.45178E+01  5.178E-01  2.000E+01  2.000E+04 -1.118E+00
   1   16   27     3     6    1.1544E+06 -2.9582E+04   1.1839E+06  0.000E+00  0.000E+00  0.000E+00  3.36359E+01  5.248E-01  2.000E+01  2.000E+04 -1.479E+00
   1   17   28     3     7    1.1839E+06 -3.6645E+04   1.2206E+06  0.000E+00  0.000E+00  0.000E+00  3.27559E+01  5.337E-01  2.000E+01  2.000E+04 -1.832E+00
   1   18   29     3     8    1.2206E+06 -4.7609E+04   1.2682E+06  0.000E+00  0.000E+00  0.000E+00  3.18782E+01  5.448E-01  2.000E+01  2.000E+04 -2.380E+00
   1   18   30     3     9    1.2682E+06 -4.4008E+04   1.3122E+06  0.000E+00  0.000E+00  0.000E+00  3.10012E+01  5.568E-01  2.000E+01  2.000E+04 -2.200E+00



1
              HEAD IN LAYER   1 AT END OF TIME STEP   1 IN STRESS PERIOD    6
  ---------------------------------------------------------------------------

          1      2      3      4      5      6      7      8      9     10
         11     12     13     14     15     16     17     18     19     20
         21     22     23     24     25     26     27     28     29     30
 .........................................................................
   1  ****** ****** ****** ****** ****** ****** ****** ****** ****** ******
      ****** ****** ****** ****** ****** ****** ****** ****** ****** ******
      ****** ****** ****** ****** ****** ****** ****** ****** ****** ******
   2  ****** ****** ****** ****** ****** ****** ****** ****** ****** ******
      ****** ****** ****** ****** ****** ****** ****** ****** ****** ******
      ****** ****** ****** ****** ****** ****** ****** ****** ****** ******
   3  ****** ****** ****** ****** ****** ****** ****** ****** ****** ******
      ****** ****** ****** ****** ****** ****** ****** ****** ****** ******
      ****** ****** ****** ****** ****** ****** ****** ****** ****** ******
   4  ****** ****** ****** ****** ****** ****** ****** ****** ****** ******
      ****** ****** ****** ****** ****** ****** ****** ****** ****** ******
      ****** ****** ****** ****** ****** ****** ****** ****** ****** ******
   5  ****** ****** ****** ****** ****** ****** ****** ****** ****** ******
      ****** ****** ****** ****** ****** ****** ****** ****** ****** ******
      ****** ****** ****** ****** ****** ****** ****** ****** ****** ******
   6  ****** ****** ****** ****** ****** ****** ****** ****** ****** ******
      ****** ****** ****** ****** ****** ****** ****** ****** ****** ******
      ****** ****** ****** ****** ****** ****** ****** ****** ****** ******
   7  ****** ****** ****** ****** ****** ****** ****** ****** ****** ******
      ****** ****** ****** ****** ****** ****** ****** ****** ****** ******
      ****** ****** ****** ****** ****** ****** ****** ****** ****** ******
   8  ****** ****** ****** ****** ****** ****** ****** ****** ****** ******
      ****** ****** ****** ****** ****** ****** ****** ****** ****** ******
      ****** ****** ****** ****** ****** ****** ****** ****** ****** ******
   9  ****** ****** ****** ****** ****** ****** ****** ****** ****** ******
      ****** ****** ****** ****** ****** ****** ****** ****** ****** ******
      ****** ****** ****** ****** ****** ****** ****** ****** ****** ******
  10  ****** ****** ****** ****** ****** ****** ****** ****** ****** ******
      ****** ****** ****** ****** ****** ****** ****** ****** ****** ******
      ****** ****** ****** ****** ****** ****** ****** ****** ****** ******
  11  ****** ****** ****** ****** ****** ****** ****** ****** ****** ******
      ****** ****** ****** ****** ****** ****** ****** ****** ****** ******
      ****** ****** ****** ****** ****** ****** ****** ****** ****** ******
  12  ****** ****** ****** ****** ****** ****** ****** ****** ****** ******
      ****** ****** ****** ****** ****** ****** ****** ****** ****** ******
      ****** ****** ****** ****** ****** ****** ****** ****** ****** ******
  13  ****** ****** ****** ****** ****** ****** ****** ****** ****** ******
      ****** ****** ****** ****** ****** ****** ****** ****** ****** ******
      ****** ****** ****** ****** ****** ****** ****** ****** ****** ******
  14  ****** ****** ****** ****** ****** ****** ****** ****** ****** ******
      ****** ****** ****** ****** ****** ****** ****** ****** ****** ******
      ****** ****** ****** ****** ****** ****** ****** ****** ****** ******
  15  ****** ****** ****** ****** ****** ****** ****** ****** ****** ******
      ****** ****** ****** ****** ****** ****** ****** ****** ****** ******
      ****** ****** ****** ****** ****** ****** ****** ****** ****** ******
  16  ****** ****** ****** ****** ****** ****** ****** ****** ****** ******
      ****** ****** ****** ****** ****** ****** ****** ****** ****** ******
      ****** ****** ****** ****** ****** ****** ****** ****** ****** ******
  17  ****** ****** ****** ****** ****** ****** ****** ****** ****** ******
      ****** ****** ****** ****** ****** ****** ****** ****** ****** ******
      ****** ****** ****** ****** ****** ****** ****** ****** ****** ******
  18  ****** ****** ****** ****** ****** ****** ****** ****** ****** ******
      ****** ****** ****** ****** ****** ****** ****** ****** ****** ******
      ****** ****** ****** ****** ****** ****** ****** ****** ****** ******
  19  ****** ****** ****** ****** ****** ****** ****** ****** ****** ******
      ****** ****** ****** ****** ****** ****** ****** ****** ****** ******
      ****** ****** ****** ****** ****** ****** ****** ****** ****** ******
  20  ****** ****** ****** ****** ****** ****** ****** ****** ****** ******
      ****** ****** ****** ****** ****** ****** ****** ****** ****** ******
      ****** ****** ****** ****** ****** ****** ****** ****** ****** ******
  21  ****** ****** ****** ****** ****** ****** ****** ****** ****** ******
      ****** ****** ****** ****** ****** ****** ****** ****** ****** ******
      ****** ****** ****** ****** ****** ****** ****** ****** ****** ******
  22  ****** ****** ****** ****** ****** ****** ****** ****** ****** ******
      ****** ****** ****** ****** ****** ****** ****** ****** ****** ******
      ****** ****** ****** ****** ****** ****** ****** ****** ****** ******
  23  ****** ****** ****** ****** ****** ****** ****** ****** ****** ******
      ****** ****** ****** ****** ****** ****** ****** ****** ****** ******
      ****** ****** ****** ****** ****** ****** ****** ****** ****** ******
  24  ****** ****** ****** ****** ****** ****** ****** ****** ****** ******
      ****** ****** ****** ****** ****** ****** ****** ****** ****** ******
      ****** ****** ****** ****** ****** ****** ****** ****** ****** ******
  25  ****** ****** ****** ****** ****** ****** ****** ****** ****** ******
      ****** ****** ****** ****** ****** ****** ****** ****** ****** ******
      ****** ****** ****** ****** ****** ****** ****** ****** ****** ******

 HEAD WILL BE SAVED ON UNIT   51 AT END OF TIME STEP    1, STRESS PERIOD    6
1
  VOLUMETRIC BUDGET FOR ENTIRE MODEL AT END OF TIME STEP    1, STRESS PERIOD   6
  ------------------------------------------------------------------------------

     CUMULATIVE VOLUMES      L**3       RATES FOR THIS TIME STEP      L**3/T
     ------------------                 ------------------------

           IN:                                      IN:
           ---                                      ---
             STORAGE =    20646221.8683               STORAGE =        1090.9670
       CONSTANT HEAD =   648950087.5697         CONSTANT HEAD =     1192146.8473
               WELLS =           0.0000                 WELLS =           0.0000
            RECHARGE =    15097200.0000              RECHARGE =       55200.0000
      STREAM LEAKAGE =           0.0000        STREAM LEAKAGE =           0.0000

            TOTAL IN =   684693509.4380              TOTAL IN =     1248437.8143

          OUT:                                     OUT:
          ----                                     ----
             STORAGE =      677397.4667               STORAGE =        3727.3605
       CONSTANT HEAD =           0.0000         CONSTANT HEAD =           0.0000
               WELLS =    44295136.5000                 WELLS =       82500.7500
            RECHARGE =           0.0000              RECHARGE =           0.0000
      STREAM LEAKAGE =   639720980.6422        STREAM LEAKAGE =     1162209.6761

           TOTAL OUT =   684693514.6089             TOTAL OUT =     1248437.7866

            IN - OUT =          -5.1709              IN - OUT =       2.7622E-02

 PERCENT DISCREPANCY =          -0.00     PERCENT DISCREPANCY =           0.00






         TIME SUMMARY AT END OF TIME STEP    1 IN STRESS PERIOD    6
                    SECONDS     MINUTES      HOURS       DAYS        YEARS
                    -----------------------------------------------------------
   TIME STEP LENGTH 7.86240E+06 1.31040E+05  2184.0      91.000     0.24914    
 STRESS PERIOD TIME 7.86240E+06 1.31040E+05  2184.0      91.000     0.24914    
         TOTAL TIME 4.73472E+07 7.89120E+05  13152.      548.00      1.5003    
1
1
                            STRESS PERIOD NO.    7, LENGTH =   91.00000    
                            -----------------------------------------------

                              NUMBER OF TIME STEPS =     1

                               MULTIPLIER FOR DELT =     1.500

                            INITIAL TIME STEP SIZE =   91.00000    

 WELL NO.  LAYER   ROW   COL   STRESS RATE         
 --------------------------------------------------
      1      1      8     16     -0.3000E+05
      2      1     21     24     -0.5000E+05

      2 WELLS

                 RECHARGE =   0.00000    

 REUSING STREAM SEGMENT DATA FROM LAST STRESS PERIOD
 
 SOLVING FOR HEAD 


     6 CALLS TO PCG ROUTINE FOR TIME STEP   1 IN STRESS PERIOD    7
    23 TOTAL ITERATIONS

 OUTPUT CONTROL FOR STRESS PERIOD    7   TIME STEP    1
    SAVE BUDGET
    SAVE HEAD FOR ALL LAYERS
    PRINT HEAD FOR ALL LAYERS
 UBDSV2 SAVING "STREAMFLOW OUT  " ON UNIT  50 AT TIME STEP  1, STRESS PERIOD   7



 STREAM LISTING     PERIOD      7   STEP        1

 LAYER ROW COL. STREAM  RCH.  FLOW INTO     FLOW TO   FLOW OUT OF   OVRLND.     DIRECT     STREAM       STREAM     STREAM     STREAM   STREAMBED  STREAMBED
                SEG.NO.  NO.  STRM. RCH.    AQUIFER    STRM. RCH.    RUNOFF     PRECIP       ET          HEAD       DEPTH      WIDTH   CONDCTNC.   GRADIENT

   1   13    1     1     1    1.0000E+05 -2.7329E+04   1.2733E+05  0.000E+00  0.000E+00  0.000E+00  4.84176E+01  1.562E-01  2.000E+01  2.000E+04 -1.366E+00
   1   13    2     1     2    1.2733E+05 -3.6940E+04   1.6427E+05  0.000E+00  0.000E+00  0.000E+00  4.79655E+01  1.814E-01  2.000E+01  2.000E+04 -1.847E+00
   1   14    3     1     3    1.6427E+05 -3.2448E+04   1.9672E+05  0.000E+00  0.000E+00  0.000E+00  4.75130E+01  2.062E-01  2.000E+01  2.000E+04 -1.622E+00
   1   15    4     1     4    1.9672E+05 -3.1718E+04   2.2843E+05  0.000E+00  0.000E+00  0.000E+00  4.70570E+01  2.274E-01  2.000E+01  2.000E+04 -1.586E+00
   1   16    5     1     5    2.2843E+05 -3.3318E+04   2.6175E+05  0.000E+00  0.000E+00  0.000E+00  4.66000E+01  2.477E-01  2.000E+01  2.000E+04 -1.666E+00
   1   16    6     1     6    2.6175E+05 -2.9073E+04   2.9082E+05  0.000E+00  0.000E+00  0.000E+00  4.61412E+01  2.662E-01  2.000E+01  2.000E+04 -1.454E+00
   1   16    7     1     7    2.9082E+05 -2.8865E+04   3.1969E+05  0.000E+00  0.000E+00  0.000E+00  4.56803E+01  2.826E-01  2.000E+01  2.000E+04 -1.443E+00
   1   16    8     1     8    3.1969E+05 -2.9013E+04   3.4870E+05  0.000E+00  0.000E+00  0.000E+00  4.52188E+01  2.983E-01  2.000E+01  2.000E+04 -1.451E+00
   1   16    9     1     9    3.4870E+05 -2.9058E+04   3.7776E+05  0.000E+00  0.000E+00  0.000E+00  4.47568E+01  3.136E-01  2.000E+01  2.000E+04 -1.453E+00
   1   16   10     1    10    3.7776E+05 -2.9052E+04   4.0681E+05  0.000E+00  0.000E+00  0.000E+00  4.42944E+01  3.285E-01  2.000E+01  2.000E+04 -1.453E+00
   1   16   11     1    11    4.0681E+05 -2.9612E+04   4.3642E+05  0.000E+00  0.000E+00  0.000E+00  4.38316E+01  3.430E-01  2.000E+01  2.000E+04 -1.481E+00
   1   16   12     1    12    4.3642E+05 -3.4969E+04   4.7139E+05  0.000E+00  0.000E+00  0.000E+00  4.33699E+01  3.585E-01  2.000E+01  2.000E+04 -1.748E+00
   1   15   13     1    13    4.7139E+05 -3.3403E+04   5.0480E+05  0.000E+00  0.000E+00  0.000E+00  4.29086E+01  3.745E-01  2.000E+01  2.000E+04 -1.670E+00
   1   14   14     1    14    5.0480E+05 -3.3621E+04   5.3842E+05  0.000E+00  0.000E+00  0.000E+00  4.24465E+01  3.897E-01  2.000E+01  2.000E+04 -1.681E+00
   1   13   15     1    15    5.3842E+05 -3.5274E+04   5.7369E+05  0.000E+00  0.000E+00  0.000E+00  4.19845E+01  4.049E-01  2.000E+01  2.000E+04 -1.764E+00
   1   12   16     1    16    5.7369E+05 -4.0259E+04   6.1395E+05  0.000E+00  0.000E+00  0.000E+00  4.15235E+01  4.212E-01  2.000E+01  2.000E+04 -2.013E+00
   1   12   17     1    17    6.1395E+05 -3.1509E+04   6.4546E+05  0.000E+00  0.000E+00  0.000E+00  4.10613E+01  4.363E-01  2.000E+01  2.000E+04 -1.575E+00
   1   12   18     1    18    6.4546E+05 -3.0259E+04   6.7572E+05  0.000E+00  0.000E+00  0.000E+00  4.05968E+01  4.490E-01  2.000E+01  2.000E+04 -1.513E+00
   1   12   19     1    19    6.7572E+05 -3.4465E+04   7.1018E+05  0.000E+00  0.000E+00  0.000E+00  4.01326E+01  4.621E-01  2.000E+01  2.000E+04 -1.723E+00
   1   13   20     1    20    7.1018E+05 -2.5376E+04   7.3556E+05  0.000E+00  0.000E+00  0.000E+00  3.96672E+01  4.740E-01  2.000E+01  2.000E+04 -1.269E+00
   1   14   21     1    21    7.3556E+05 -1.8348E+04   7.5391E+05  0.000E+00  0.000E+00  0.000E+00  3.91984E+01  4.825E-01  2.000E+01  2.000E+04 -9.174E-01
   1   14   22     1    22    7.5391E+05 -1.2459E+03   7.5515E+05  0.000E+00  0.000E+00  0.000E+00  3.87250E+01  4.863E-01  2.000E+01  2.000E+04 -6.230E-02
   1    9   30     2     1    5.0000E+04 -2.6216E+04   7.6216E+04  0.000E+00  0.000E+00  0.000E+00  4.02582E+01  1.332E-01  2.000E+01  2.000E+04 -1.311E+00
   1    9   29     2     2    7.6216E+04 -2.8669E+04   1.0489E+05  0.000E+00  0.000E+00  0.000E+00  4.00405E+01  1.655E-01  2.000E+01  2.000E+04 -1.433E+00
   1    9   28     2     3    1.0489E+05 -3.2908E+04   1.3779E+05  0.000E+00  0.000E+00  0.000E+00  3.98222E+01  1.972E-01  2.000E+01  2.000E+04 -1.645E+00
   1    9   27     2     4    1.3779E+05 -4.6841E+04   1.8463E+05  0.000E+00  0.000E+00  0.000E+00  3.96089E+01  2.339E-01  2.000E+01  2.000E+04 -2.342E+00
   1   10   26     2     5    1.8463E+05 -3.2717E+04   2.1735E+05  0.000E+00  0.000E+00  0.000E+00  3.93920E+01  2.670E-01  2.000E+01  2.000E+04 -1.636E+00
   1   11   25     2     6    2.1735E+05 -2.4305E+04   2.4166E+05  0.000E+00  0.000E+00  0.000E+00  3.91641E+01  2.891E-01  2.000E+01  2.000E+04 -1.215E+00
   1   12   24     2     7    2.4166E+05 -1.7722E+04   2.5938E+05  0.000E+00  0.000E+00  0.000E+00  3.89297E+01  3.047E-01  2.000E+01  2.000E+04 -8.861E-01
   1   13   23     2     8    2.5938E+05 -1.2411E+04   2.7179E+05  0.000E+00  0.000E+00  0.000E+00  3.86906E+01  3.156E-01  2.000E+01  2.000E+04 -6.205E-01
   1   14   22     2     9    2.7179E+05 -6.7979E+03   2.7859E+05  0.000E+00  0.000E+00  0.000E+00  3.84474E+01  3.224E-01  2.000E+01  2.000E+04 -3.399E-01
   1   14   22     3     1    1.0337E+06 -1.4843E+04   1.0486E+06  0.000E+00  0.000E+00  0.000E+00  3.80451E+01  4.896E-01  2.000E+01  2.000E+04 -7.421E-01
   1   15   23     3     2    1.0486E+06 -2.1628E+04   1.0702E+06  0.000E+00  0.000E+00  0.000E+00  3.71614E+01  4.947E-01  2.000E+01  2.000E+04 -1.081E+00
   1   15   24     3     3    1.0702E+06 -1.8006E+04   1.0882E+06  0.000E+00  0.000E+00  0.000E+00  3.62780E+01  5.002E-01  2.000E+01  2.000E+04 -9.003E-01
   1   15   25     3     4    1.0882E+06 -1.7797E+04   1.1060E+06  0.000E+00  0.000E+00  0.000E+00  3.53941E+01  5.052E-01  2.000E+01  2.000E+04 -8.898E-01
   1   15   26     3     5    1.1060E+06 -2.0752E+04   1.1268E+06  0.000E+00  0.000E+00  0.000E+00  3.45105E+01  5.105E-01  2.000E+01  2.000E+04 -1.038E+00
   1   16   27     3     6    1.1268E+06 -2.7101E+04   1.1539E+06  0.000E+00  0.000E+00  0.000E+00  3.36281E+01  5.170E-01  2.000E+01  2.000E+04 -1.355E+00
   1   17   28     3     7    1.1539E+06 -3.3826E+04   1.1877E+06  0.000E+00  0.000E+00  0.000E+00  3.27475E+01  5.253E-01  2.000E+01  2.000E+04 -1.691E+00
   1   18   29     3     8    1.1877E+06 -4.4724E+04   1.2324E+06  0.000E+00  0.000E+00  0.000E+00  3.18691E+01  5.358E-01  2.000E+01  2.000E+04 -2.236E+00
   1   18   30     3     9    1.2324E+06 -4.2064E+04   1.2745E+06  0.000E+00  0.000E+00  0.000E+00  3.09917E+01  5.472E-01  2.000E+01  2.000E+04 -2.103E+00



1
              HEAD IN LAYER   1 AT END OF TIME STEP   1 IN STRESS PERIOD    7
  ---------------------------------------------------------------------------

          1      2      3      4      5      6      7      8      9     10
         11     12     13     14     15     16     17     18     19     20
         21     22     23     24     25     26     27     28     29     30
 .........................................................................
   1  ****** ****** ****** ****** ****** ****** ****** ****** ****** ******
      ****** ****** ****** ****** ****** ****** ****** ****** ****** ******
      ****** ****** ****** ****** ****** ****** ****** ****** ****** ******
   2  ****** ****** ****** ****** ****** ****** ****** ****** ****** ******
      ****** ****** ****** ****** ****** ****** ****** ****** ****** ******
      ****** ****** ****** ****** ****** ****** ****** ****** ****** ******
   3  ****** ****** ****** ****** ****** ****** ****** ****** ****** ******
      ****** ****** ****** ****** ****** ****** ****** ****** ****** ******
      ****** ****** ****** ****** ****** ****** ****** ****** ****** ******
   4  ****** ****** ****** ****** ****** ****** ****** ****** ****** ******
      ****** ****** ****** ****** ****** ****** ****** ****** ****** ******
      ****** ****** ****** ****** ****** ****** ****** ****** ****** ******
   5  ****** ****** ****** ****** ****** ****** ****** ****** ****** ******
      ****** ****** ****** ****** ****** ****** ****** ****** ****** ******
      ****** ****** ****** ****** ****** ****** ****** ****** ****** ******
   6  ****** ****** ****** ****** ****** ****** ****** ****** ****** ******
      ****** ****** ****** ****** ****** ****** ****** ****** ****** ******
      ****** ****** ****** ****** ****** ****** ****** ****** ****** ******
   7  ****** ****** ****** ****** ****** ****** ****** ****** ****** ******
      ****** ****** ****** ****** ****** ****** ****** ****** ****** ******
      ****** ****** ****** ****** ****** ****** ****** ****** ****** ******
   8  ****** ****** ****** ****** ****** ****** ****** ****** ****** ******
      ****** ****** ****** ****** ****** ****** ****** ****** ****** ******
      ****** ****** ****** ****** ****** ****** ****** ****** ****** ******
   9  ****** ****** ****** ****** ****** ****** ****** ****** ****** ******
      ****** ****** ****** ****** ****** ****** ****** ****** ****** ******
      ****** ****** ****** ****** ****** ****** ****** ****** ****** ******
  10  ****** ****** ****** ****** ****** ****** ****** ****** ****** ******
      ****** ****** ****** ****** ****** ****** ****** ****** ****** ******
      ****** ****** ****** ****** ****** ****** ****** ****** ****** ******
  11  ****** ****** ****** ****** ****** ****** ****** ****** ****** ******
      ****** ****** ****** ****** ****** ****** ****** ****** ****** ******
      ****** ****** ****** ****** ****** ****** ****** ****** ****** ******
  12  ****** ****** ****** ****** ****** ****** ****** ****** ****** ******
      ****** ****** ****** ****** ****** ****** ****** ****** ****** ******
      ****** ****** ****** ****** ****** ****** ****** ****** ****** ******
  13  ****** ****** ****** ****** ****** ****** ****** ****** ****** ******
      ****** ****** ****** ****** ****** ****** ****** ****** ****** ******
      ****** ****** ****** ****** ****** ****** ****** ****** ****** ******
  14  ****** ****** ****** ****** ****** ****** ****** ****** ****** ******
      ****** ****** ****** ****** ****** ****** ****** ****** ****** ******
      ****** ****** ****** ****** ****** ****** ****** ****** ****** ******
  15  ****** ****** ****** ****** ****** ****** ****** ****** ****** ******
      ****** ****** ****** ****** ****** ****** ****** ****** ****** ******
      ****** ****** ****** ****** ****** ****** ****** ****** ****** ******
  16  ****** ****** ****** ****** ****** ****** ****** ****** ****** ******
      ****** ****** ****** ****** ****** ****** ****** ****** ****** ******
      ****** ****** ****** ****** ****** ****** ****** ****** ****** ******
  17  ****** ****** ****** ****** ****** ****** ****** ****** ****** ******
      ****** ****** ****** ****** ****** ****** ****** ****** ****** ******
      ****** ****** ****** ****** ****** ****** ****** ****** ****** ******
  18  ****** ****** ****** ****** ****** ****** ****** ****** ****** ******
      ****** ****** ****** ****** ****** ****** ****** ****** ****** ******
      ****** ****** ****** ****** ****** ****** ****** ****** ****** ******
  19  ****** ****** ****** ****** ****** ****** ****** ****** ****** ******
      ****** ****** ****** ****** ****** ****** ****** ****** ****** ******
      ****** ****** ****** ****** ****** ****** ****** ****** ****** ******
  20  ****** ****** ****** ****** ****** ****** ****** ****** ****** ******
      ****** ****** ****** ****** ****** ****** ****** ****** ****** ******
      ****** ****** ****** ****** ****** ****** ****** ****** ****** ******
  21  ****** ****** ****** ****** ****** ****** ****** ****** ****** ******
      ****** ****** ****** ****** ****** ****** ****** ****** ****** ******
      ****** ****** ****** ****** ****** ****** ****** ****** ****** ******
  22  ****** ****** ****** ****** ****** ****** ****** ****** ****** ******
      ****** ****** ****** ****** ****** ****** ****** ****** ****** ******
      ****** ****** ****** ****** ****** ****** ****** ****** ****** ******
  23  ****** ****** ****** ****** ****** ****** ****** ****** ****** ******
      ****** ****** ****** ****** ****** ****** ****** ****** ****** ******
      ****** ****** ****** ****** ****** ****** ****** ****** ****** ******
  24  ****** ****** ****** ****** ****** ****** ****** ****** ****** ******
      ****** ****** ****** ****** ****** ****** ****** ****** ****** ******
      ****** ****** ****** ****** ****** ****** ****** ****** ****** ******
  25  ****** ****** ****** ****** ****** ****** ****** ****** ****** ******
      ****** ****** ****** ****** ****** ****** ****** ****** ****** ******
      ****** ****** ****** ****** ****** ****** ****** ****** ****** ******

 HEAD WILL BE SAVED ON UNIT   51 AT END OF TIME STEP    1, STRESS PERIOD    7
1
  VOLUMETRIC BUDGET FOR ENTIRE MODEL AT END OF TIME STEP    1, STRESS PERIOD   7
  ------------------------------------------------------------------------------

     CUMULATIVE VOLUMES      L**3       RATES FOR THIS TIME STEP      L**3/T
     ------------------                 ------------------------

           IN:                                      IN:
           ---                                      ---
             STORAGE =    21026530.6879               STORAGE =        4179.2178
       CONSTANT HEAD =   758267161.4053         CONSTANT HEAD =     1201286.5257
               WELLS =           0.0000                 WELLS =           0.0000
            RECHARGE =    15097200.0000              RECHARGE =           0.0000
      STREAM LEAKAGE =           0.0000        STREAM LEAKAGE =           0.0000

            TOTAL IN =   794390892.0932              TOTAL IN =     1205465.7435

          OUT:                                     OUT:
          ----                                     ----
             STORAGE =      767326.0697               STORAGE =         988.2264
       CONSTANT HEAD =           0.0000         CONSTANT HEAD =           0.0000
               WELLS =    51575136.5000                 WELLS =       80000.0000
            RECHARGE =           0.0000              RECHARGE =           0.0000
      STREAM LEAKAGE =   742048438.3327        STREAM LEAKAGE =     1124477.5570

           TOTAL OUT =   794390900.9024             TOTAL OUT =     1205465.7834

            IN - OUT =          -8.8092              IN - OUT =      -3.9981E-02

 PERCENT DISCREPANCY =          -0.00     PERCENT DISCREPANCY =          -0.00






         TIME SUMMARY AT END OF TIME STEP    1 IN STRESS PERIOD    7
                    SECONDS     MINUTES      HOURS       DAYS        YEARS
                    -----------------------------------------------------------
   TIME STEP LENGTH 7.86240E+06 1.31040E+05  2184.0      91.000     0.24914    
 STRESS PERIOD TIME 7.86240E+06 1.31040E+05  2184.0      91.000     0.24914    
         TOTAL TIME 5.52096E+07 9.20160E+05  15336.      639.00      1.7495    
1
1
                            STRESS PERIOD NO.    8, LENGTH =   91.00000    
                            -----------------------------------------------

                              NUMBER OF TIME STEPS =     1

                               MULTIPLIER FOR DELT =     1.500

                            INITIAL TIME STEP SIZE =   91.00000    

 WELL NO.  LAYER   ROW   COL   STRESS RATE         
 --------------------------------------------------
      1      1      8     16     -0.3000E+05
      2      1     21     24     -0.3807E+05
      3      1     23     11     -0.1193E+05

      3 WELLS

                 RECHARGE =  1.000000E-03

 REUSING STREAM SEGMENT DATA FROM LAST STRESS PERIOD
 
 SOLVING FOR HEAD 


     6 CALLS TO PCG ROUTINE FOR TIME STEP   1 IN STRESS PERIOD    8
    22 TOTAL ITERATIONS

 OUTPUT CONTROL FOR STRESS PERIOD    8   TIME STEP    1
    SAVE BUDGET
    SAVE HEAD FOR ALL LAYERS
    PRINT HEAD FOR ALL LAYERS
 UBDSV2 SAVING "STREAMFLOW OUT  " ON UNIT  50 AT TIME STEP  1, STRESS PERIOD   8



 STREAM LISTING     PERIOD      8   STEP        1

 LAYER ROW COL. STREAM  RCH.  FLOW INTO     FLOW TO   FLOW OUT OF   OVRLND.     DIRECT     STREAM       STREAM     STREAM     STREAM   STREAMBED  STREAMBED
                SEG.NO.  NO.  STRM. RCH.    AQUIFER    STRM. RCH.    RUNOFF     PRECIP       ET          HEAD       DEPTH      WIDTH   CONDCTNC.   GRADIENT

   1   13    1     1     1    1.0000E+05 -2.7710E+04   1.2771E+05  0.000E+00  0.000E+00  0.000E+00  4.84177E+01  1.564E-01  2.000E+01  2.000E+04 -1.386E+00
   1   13    2     1     2    1.2771E+05 -3.7396E+04   1.6511E+05  0.000E+00  0.000E+00  0.000E+00  4.79659E+01  1.818E-01  2.000E+01  2.000E+04 -1.870E+00
   1   14    3     1     3    1.6511E+05 -3.2887E+04   1.9799E+05  0.000E+00  0.000E+00  0.000E+00  4.75137E+01  2.069E-01  2.000E+01  2.000E+04 -1.644E+00
   1   15    4     1     4    1.9799E+05 -3.2126E+04   2.3012E+05  0.000E+00  0.000E+00  0.000E+00  4.70579E+01  2.284E-01  2.000E+01  2.000E+04 -1.606E+00
   1   16    5     1     5    2.3012E+05 -3.3648E+04   2.6377E+05  0.000E+00  0.000E+00  0.000E+00  4.66011E+01  2.488E-01  2.000E+01  2.000E+04 -1.682E+00
   1   16    6     1     6    2.6377E+05 -2.9344E+04   2.9311E+05  0.000E+00  0.000E+00  0.000E+00  4.61424E+01  2.674E-01  2.000E+01  2.000E+04 -1.467E+00
   1   16    7     1     7    2.9311E+05 -2.9115E+04   3.2223E+05  0.000E+00  0.000E+00  0.000E+00  4.56816E+01  2.839E-01  2.000E+01  2.000E+04 -1.456E+00
   1   16    8     1     8    3.2223E+05 -2.9242E+04   3.5147E+05  0.000E+00  0.000E+00  0.000E+00  4.52202E+01  2.998E-01  2.000E+01  2.000E+04 -1.462E+00
   1   16    9     1     9    3.5147E+05 -2.9267E+04   3.8074E+05  0.000E+00  0.000E+00  0.000E+00  4.47583E+01  3.151E-01  2.000E+01  2.000E+04 -1.463E+00
   1   16   10     1    10    3.8074E+05 -2.9245E+04   4.0998E+05  0.000E+00  0.000E+00  0.000E+00  4.42959E+01  3.300E-01  2.000E+01  2.000E+04 -1.462E+00
   1   16   11     1    11    4.0998E+05 -2.9803E+04   4.3978E+05  0.000E+00  0.000E+00  0.000E+00  4.38332E+01  3.446E-01  2.000E+01  2.000E+04 -1.490E+00
   1   16   12     1    12    4.3978E+05 -3.5206E+04   4.7499E+05  0.000E+00  0.000E+00  0.000E+00  4.33715E+01  3.602E-01  2.000E+01  2.000E+04 -1.760E+00
   1   15   13     1    13    4.7499E+05 -3.3784E+04   5.0877E+05  0.000E+00  0.000E+00  0.000E+00  4.29103E+01  3.762E-01  2.000E+01  2.000E+04 -1.689E+00
   1   14   14     1    14    5.0877E+05 -3.4067E+04   5.4284E+05  0.000E+00  0.000E+00  0.000E+00  4.24484E+01  3.916E-01  2.000E+01  2.000E+04 -1.703E+00
   1   13   15     1    15    5.4284E+05 -3.5739E+04   5.7858E+05  0.000E+00  0.000E+00  0.000E+00  4.19865E+01  4.070E-01  2.000E+01  2.000E+04 -1.787E+00
   1   12   16     1    16    5.7858E+05 -4.0711E+04   6.1929E+05  0.000E+00  0.000E+00  0.000E+00  4.15257E+01  4.234E-01  2.000E+01  2.000E+04 -2.036E+00
   1   12   17     1    17    6.1929E+05 -3.1885E+04   6.5118E+05  0.000E+00  0.000E+00  0.000E+00  4.10636E+01  4.386E-01  2.000E+01  2.000E+04 -1.594E+00
   1   12   18     1    18    6.5118E+05 -3.0627E+04   6.8180E+05  0.000E+00  0.000E+00  0.000E+00  4.05992E+01  4.514E-01  2.000E+01  2.000E+04 -1.531E+00
   1   12   19     1    19    6.8180E+05 -3.4870E+04   7.1667E+05  0.000E+00  0.000E+00  0.000E+00  4.01351E+01  4.646E-01  2.000E+01  2.000E+04 -1.744E+00
   1   13   20     1    20    7.1667E+05 -2.5799E+04   7.4247E+05  0.000E+00  0.000E+00  0.000E+00  3.96698E+01  4.766E-01  2.000E+01  2.000E+04 -1.290E+00
   1   14   21     1    21    7.4247E+05 -1.8796E+04   7.6127E+05  0.000E+00  0.000E+00  0.000E+00  3.92012E+01  4.853E-01  2.000E+01  2.000E+04 -9.398E-01
   1   14   22     1    22    7.6127E+05 -1.4208E+03   7.6269E+05  0.000E+00  0.000E+00  0.000E+00  3.87278E+01  4.892E-01  2.000E+01  2.000E+04 -7.104E-02
   1    9   30     2     1    5.0000E+04 -2.6505E+04   7.6505E+04  0.000E+00  0.000E+00  0.000E+00  4.02584E+01  1.334E-01  2.000E+01  2.000E+04 -1.325E+00
   1    9   29     2     2    7.6505E+04 -2.8957E+04   1.0546E+05  0.000E+00  0.000E+00  0.000E+00  4.00409E+01  1.659E-01  2.000E+01  2.000E+04 -1.448E+00
   1    9   28     2     3    1.0546E+05 -3.3204E+04   1.3867E+05  0.000E+00  0.000E+00  0.000E+00  3.98229E+01  1.979E-01  2.000E+01  2.000E+04 -1.660E+00
   1    9   27     2     4    1.3867E+05 -4.7200E+04   1.8586E+05  0.000E+00  0.000E+00  0.000E+00  3.96098E+01  2.348E-01  2.000E+01  2.000E+04 -2.360E+00
   1   10   26     2     5    1.8586E+05 -3.3094E+04   2.1896E+05  0.000E+00  0.000E+00  0.000E+00  3.93931E+01  2.681E-01  2.000E+01  2.000E+04 -1.655E+00
   1   11   25     2     6    2.1896E+05 -2.4674E+04   2.4363E+05  0.000E+00  0.000E+00  0.000E+00  3.91655E+01  2.905E-01  2.000E+01  2.000E+04 -1.234E+00
   1   12   24     2     7    2.4363E+05 -1.8062E+04   2.6170E+05  0.000E+00  0.000E+00  0.000E+00  3.89313E+01  3.063E-01  2.000E+01  2.000E+04 -9.031E-01
   1   13   23     2     8    2.6170E+05 -1.2708E+04   2.7440E+05  0.000E+00  0.000E+00  0.000E+00  3.86923E+01  3.173E-01  2.000E+01  2.000E+04 -6.354E-01
   1   14   22     2     9    2.7440E+05 -6.9922E+03   2.8140E+05  0.000E+00  0.000E+00  0.000E+00  3.84493E+01  3.243E-01  2.000E+01  2.000E+04 -3.496E-01
   1   14   22     3     1    1.0441E+06 -1.5016E+04   1.0591E+06  0.000E+00  0.000E+00  0.000E+00  3.80481E+01  4.925E-01  2.000E+01  2.000E+04 -7.508E-01
   1   15   23     3     2    1.0591E+06 -2.2243E+04   1.0813E+06  0.000E+00  0.000E+00  0.000E+00  3.71644E+01  4.977E-01  2.000E+01  2.000E+04 -1.112E+00
   1   15   24     3     3    1.0813E+06 -1.8529E+04   1.0999E+06  0.000E+00  0.000E+00  0.000E+00  3.62812E+01  5.034E-01  2.000E+01  2.000E+04 -9.265E-01
   1   15   25     3     4    1.0999E+06 -1.8288E+04   1.1182E+06  0.000E+00  0.000E+00  0.000E+00  3.53974E+01  5.085E-01  2.000E+01  2.000E+04 -9.144E-01
   1   15   26     3     5    1.1182E+06 -2.1239E+04   1.1394E+06  0.000E+00  0.000E+00  0.000E+00  3.45139E+01  5.139E-01  2.000E+01  2.000E+04 -1.062E+00
   1   16   27     3     6    1.1394E+06 -2.7797E+04   1.1672E+06  0.000E+00  0.000E+00  0.000E+00  3.36317E+01  5.206E-01  2.000E+01  2.000E+04 -1.390E+00
   1   17   28     3     7    1.1672E+06 -3.4595E+04   1.2018E+06  0.000E+00  0.000E+00  0.000E+00  3.27512E+01  5.290E-01  2.000E+01  2.000E+04 -1.730E+00
   1   18   29     3     8    1.2018E+06 -4.5491E+04   1.2473E+06  0.000E+00  0.000E+00  0.000E+00  3.18729E+01  5.396E-01  2.000E+01  2.000E+04 -2.275E+00
   1   18   30     3     9    1.2473E+06 -4.2607E+04   1.2899E+06  0.000E+00  0.000E+00  0.000E+00  3.09956E+01  5.512E-01  2.000E+01  2.000E+04 -2.130E+00



1
              HEAD IN LAYER   1 AT END OF TIME STEP   1 IN STRESS PERIOD    8
  ---------------------------------------------------------------------------

          1      2      3      4      5      6      7      8      9     10
         11     12     13     14     15     16     17     18     19     20
         21     22     23     24     25     26     27     28     29     30
 .........................................................................
   1  ****** ****** ****** ****** ****** ****** ****** ****** ****** ******
      ****** ****** ****** ****** ****** ****** ****** ****** ****** ******
      ****** ****** ****** ****** ****** ****** ****** ****** ****** ******
   2  ****** ****** ****** ****** ****** ****** ****** ****** ****** ******
      ****** ****** ****** ****** ****** ****** ****** ****** ****** ******
      ****** ****** ****** ****** ****** ****** ****** ****** ****** ******
   3  ****** ****** ****** ****** ****** ****** ****** ****** ****** ******
      ****** ****** ****** ****** ****** ****** ****** ****** ****** ******
      ****** ****** ****** ****** ****** ****** ****** ****** ****** ******
   4  ****** ****** ****** ****** ****** ****** ****** ****** ****** ******
      ****** ****** ****** ****** ****** ****** ****** ****** ****** ******
      ****** ****** ****** ****** ****** ****** ****** ****** ****** ******
   5  ****** ****** ****** ****** ****** ****** ****** ****** ****** ******
      ****** ****** ****** ****** ****** ****** ****** ****** ****** ******
      ****** ****** ****** ****** ****** ****** ****** ****** ****** ******
   6  ****** ****** ****** ****** ****** ****** ****** ****** ****** ******
      ****** ****** ****** ****** ****** ****** ****** ****** ****** ******
      ****** ****** ****** ****** ****** ****** ****** ****** ****** ******
   7  ****** ****** ****** ****** ****** ****** ****** ****** ****** ******
      ****** ****** ****** ****** ****** ****** ****** ****** ****** ******
      ****** ****** ****** ****** ****** ****** ****** ****** ****** ******
   8  ****** ****** ****** ****** ****** ****** ****** ****** ****** ******
      ****** ****** ****** ****** ****** ****** ****** ****** ****** ******
      ****** ****** ****** ****** ****** ****** ****** ****** ****** ******
   9  ****** ****** ****** ****** ****** ****** ****** ****** ****** ******
      ****** ****** ****** ****** ****** ****** ****** ****** ****** ******
      ****** ****** ****** ****** ****** ****** ****** ****** ****** ******
  10  ****** ****** ****** ****** ****** ****** ****** ****** ****** ******
      ****** ****** ****** ****** ****** ****** ****** ****** ****** ******
      ****** ****** ****** ****** ****** ****** ****** ****** ****** ******
  11  ****** ****** ****** ****** ****** ****** ****** ****** ****** ******
      ****** ****** ****** ****** ****** ****** ****** ****** ****** ******
      ****** ****** ****** ****** ****** ****** ****** ****** ****** ******
  12  ****** ****** ****** ****** ****** ****** ****** ****** ****** ******
      ****** ****** ****** ****** ****** ****** ****** ****** ****** ******
      ****** ****** ****** ****** ****** ****** ****** ****** ****** ******
  13  ****** ****** ****** ****** ****** ****** ****** ****** ****** ******
      ****** ****** ****** ****** ****** ****** ****** ****** ****** ******
      ****** ****** ****** ****** ****** ****** ****** ****** ****** ******
  14  ****** ****** ****** ****** ****** ****** ****** ****** ****** ******
      ****** ****** ****** ****** ****** ****** ****** ****** ****** ******
      ****** ****** ****** ****** ****** ****** ****** ****** ****** ******
  15  ****** ****** ****** ****** ****** ****** ****** ****** ****** ******
      ****** ****** ****** ****** ****** ****** ****** ****** ****** ******
      ****** ****** ****** ****** ****** ****** ****** ****** ****** ******
  16  ****** ****** ****** ****** ****** ****** ****** ****** ****** ******
      ****** ****** ****** ****** ****** ****** ****** ****** ****** ******
      ****** ****** ****** ****** ****** ****** ****** ****** ****** ******
  17  ****** ****** ****** ****** ****** ****** ****** ****** ****** ******
      ****** ****** ****** ****** ****** ****** ****** ****** ****** ******
      ****** ****** ****** ****** ****** ****** ****** ****** ****** ******
  18  ****** ****** ****** ****** ****** ****** ****** ****** ****** ******
      ****** ****** ****** ****** ****** ****** ****** ****** ****** ******
      ****** ****** ****** ****** ****** ****** ****** ****** ****** ******
  19  ****** ****** ****** ****** ****** ****** ****** ****** ****** ******
      ****** ****** ****** ****** ****** ****** ****** ****** ****** ******
      ****** ****** ****** ****** ****** ****** ****** ****** ****** ******
  20  ****** ****** ****** ****** ****** ****** ****** ****** ****** ******
      ****** ****** ****** ****** ****** ****** ****** ****** ****** ******
      ****** ****** ****** ****** ****** ****** ****** ****** ****** ******
  21  ****** ****** ****** ****** ****** ****** ****** ****** ****** ******
      ****** ****** ****** ****** ****** ****** ****** ****** ****** ******
      ****** ****** ****** ****** ****** ****** ****** ****** ****** ******
  22  ****** ****** ****** ****** ****** ****** ****** ****** ****** ******
      ****** ****** ****** ****** ****** ****** ****** ****** ****** ******
      ****** ****** ****** ****** ****** ****** ****** ****** ****** ******
  23  ****** ****** ****** ****** ****** ****** ****** ****** ****** ******
      ****** ****** ****** ****** ****** ****** ****** ****** ****** ******
      ****** ****** ****** ****** ****** ****** ****** ****** ****** ******
  24  ****** ****** ****** ****** ****** ****** ****** ****** ****** ******
      ****** ****** ****** ****** ****** ****** ****** ****** ****** ******
      ****** ****** ****** ****** ****** ****** ****** ****** ****** ******
  25  ****** ****** ****** ****** ****** ****** ****** ****** ****** ******
      ****** ****** ****** ****** ****** ****** ****** ****** ****** ******
      ****** ****** ****** ****** ****** ****** ****** ****** ****** ******

 HEAD WILL BE SAVED ON UNIT   51 AT END OF TIME STEP    1, STRESS PERIOD    8
1
  VOLUMETRIC BUDGET FOR ENTIRE MODEL AT END OF TIME STEP    1, STRESS PERIOD   8
  ------------------------------------------------------------------------------

     CUMULATIVE VOLUMES      L**3       RATES FOR THIS TIME STEP      L**3/T
     ------------------                 ------------------------

           IN:                                      IN:
           ---                                      ---
             STORAGE =    21039879.3657               STORAGE =         146.6888
       CONSTANT HEAD =   866886121.5070         CONSTANT HEAD =     1193614.9462
               WELLS =           0.0000                 WELLS =           0.0000
            RECHARGE =    17608800.0000              RECHARGE =       27600.0000
      STREAM LEAKAGE =           0.0000        STREAM LEAKAGE =           0.0000

            TOTAL IN =   905534800.8728              TOTAL IN =     1221361.6349

          OUT:                                     OUT:
          ----                                     ----
             STORAGE =      901406.8992               STORAGE =        1473.4157
       CONSTANT HEAD =           0.0000         CONSTANT HEAD =           0.0000
               WELLS =    58855136.5000                 WELLS =       80000.0000
            RECHARGE =           0.0000              RECHARGE =           0.0000
      STREAM LEAKAGE =   845778264.1902        STREAM LEAKAGE =     1139888.1962

           TOTAL OUT =   905534807.5894             TOTAL OUT =     1221361.6119

            IN - OUT =          -6.7167              IN - OUT =       2.2995E-02

 PERCENT DISCREPANCY =          -0.00     PERCENT DISCREPANCY =           0.00






         TIME SUMMARY AT END OF TIME STEP    1 IN STRESS PERIOD    8
                    SECONDS     MINUTES      HOURS       DAYS        YEARS
                    -----------------------------------------------------------
   TIME STEP LENGTH 7.86240E+06 1.31040E+05  2184.0      91.000     0.24914    
 STRESS PERIOD TIME 7.86240E+06 1.31040E+05  2184.0      91.000     0.24914    
         TOTAL TIME 6.30720E+07 1.05120E+06  17520.      730.00      1.9986    
1
1
                            STRESS PERIOD NO.    9, LENGTH =   92.00000    
                            -----------------------------------------------

                              NUMBER OF TIME STEPS =     1

                               MULTIPLIER FOR DELT =     1.500

                            INITIAL TIME STEP SIZE =   92.00000    

 WELL NO.  LAYER   ROW   COL   STRESS RATE         
 --------------------------------------------------
      1      1      8     16     -0.3000E+05
      2      1     21     24     -0.5000E+05

      2 WELLS

                 RECHARGE =  5.000000E-04

 REUSING STREAM SEGMENT DATA FROM LAST STRESS PERIOD
 
 SOLVING FOR HEAD 


     5 CALLS TO PCG ROUTINE FOR TIME STEP   1 IN STRESS PERIOD    9
    20 TOTAL ITERATIONS

 OUTPUT CONTROL FOR STRESS PERIOD    9   TIME STEP    1
    SAVE BUDGET
    SAVE HEAD FOR ALL LAYERS
    PRINT HEAD FOR ALL LAYERS
 UBDSV2 SAVING "STREAMFLOW OUT  " ON UNIT  50 AT TIME STEP  1, STRESS PERIOD   9



 STREAM LISTING     PERIOD      9   STEP        1

 LAYER ROW COL. STREAM  RCH.  FLOW INTO     FLOW TO   FLOW OUT OF   OVRLND.     DIRECT     STREAM       STREAM     STREAM     STREAM   STREAMBED  STREAMBED
                SEG.NO.  NO.  STRM. RCH.    AQUIFER    STRM. RCH.    RUNOFF     PRECIP       ET          HEAD       DEPTH      WIDTH   CONDCTNC.   GRADIENT

   1   13    1     1     1    1.0000E+05 -2.7530E+04   1.2753E+05  0.000E+00  0.000E+00  0.000E+00  4.84177E+01  1.563E-01  2.000E+01  2.000E+04 -1.376E+00
   1   13    2     1     2    1.2753E+05 -3.7178E+04   1.6471E+05  0.000E+00  0.000E+00  0.000E+00  4.79657E+01  1.816E-01  2.000E+01  2.000E+04 -1.859E+00
   1   14    3     1     3    1.6471E+05 -3.2689E+04   1.9740E+05  0.000E+00  0.000E+00  0.000E+00  4.75134E+01  2.065E-01  2.000E+01  2.000E+04 -1.634E+00
   1   15    4     1     4    1.9740E+05 -3.1957E+04   2.2935E+05  0.000E+00  0.000E+00  0.000E+00  4.70575E+01  2.279E-01  2.000E+01  2.000E+04 -1.598E+00
   1   16    5     1     5    2.2935E+05 -3.3547E+04   2.6290E+05  0.000E+00  0.000E+00  0.000E+00  4.66006E+01  2.483E-01  2.000E+01  2.000E+04 -1.677E+00
   1   16    6     1     6    2.6290E+05 -2.9272E+04   2.9217E+05  0.000E+00  0.000E+00  0.000E+00  4.61419E+01  2.669E-01  2.000E+01  2.000E+04 -1.464E+00
   1   16    7     1     7    2.9217E+05 -2.9064E+04   3.2124E+05  0.000E+00  0.000E+00  0.000E+00  4.56811E+01  2.834E-01  2.000E+01  2.000E+04 -1.453E+00
   1   16    8     1     8    3.2124E+05 -2.9214E+04   3.5045E+05  0.000E+00  0.000E+00  0.000E+00  4.52197E+01  2.992E-01  2.000E+01  2.000E+04 -1.461E+00
   1   16    9     1     9    3.5045E+05 -2.9262E+04   3.7971E+05  0.000E+00  0.000E+00  0.000E+00  4.47578E+01  3.146E-01  2.000E+01  2.000E+04 -1.463E+00
   1   16   10     1    10    3.7971E+05 -2.9256E+04   4.0897E+05  0.000E+00  0.000E+00  0.000E+00  4.42954E+01  3.295E-01  2.000E+01  2.000E+04 -1.463E+00
   1   16   11     1    11    4.0897E+05 -2.9818E+04   4.3879E+05  0.000E+00  0.000E+00  0.000E+00  4.38327E+01  3.441E-01  2.000E+01  2.000E+04 -1.491E+00
   1   16   12     1    12    4.3879E+05 -3.5206E+04   4.7399E+05  0.000E+00  0.000E+00  0.000E+00  4.33711E+01  3.597E-01  2.000E+01  2.000E+04 -1.760E+00
   1   15   13     1    13    4.7399E+05 -3.3640E+04   5.0763E+05  0.000E+00  0.000E+00  0.000E+00  4.29098E+01  3.757E-01  2.000E+01  2.000E+04 -1.682E+00
   1   14   14     1    14    5.0763E+05 -3.3854E+04   5.4149E+05  0.000E+00  0.000E+00  0.000E+00  4.24478E+01  3.910E-01  2.000E+01  2.000E+04 -1.693E+00
   1   13   15     1    15    5.4149E+05 -3.5500E+04   5.7699E+05  0.000E+00  0.000E+00  0.000E+00  4.19859E+01  4.063E-01  2.000E+01  2.000E+04 -1.775E+00
   1   12   16     1    16    5.7699E+05 -4.0476E+04   6.1746E+05  0.000E+00  0.000E+00  0.000E+00  4.15249E+01  4.227E-01  2.000E+01  2.000E+04 -2.024E+00
   1   12   17     1    17    6.1746E+05 -3.1682E+04   6.4915E+05  0.000E+00  0.000E+00  0.000E+00  4.10628E+01  4.378E-01  2.000E+01  2.000E+04 -1.584E+00
   1   12   18     1    18    6.4915E+05 -3.0423E+04   6.7957E+05  0.000E+00  0.000E+00  0.000E+00  4.05983E+01  4.506E-01  2.000E+01  2.000E+04 -1.521E+00
   1   12   19     1    19    6.7957E+05 -3.4644E+04   7.1421E+05  0.000E+00  0.000E+00  0.000E+00  4.01341E+01  4.637E-01  2.000E+01  2.000E+04 -1.732E+00
   1   13   20     1    20    7.1421E+05 -2.5534E+04   7.3975E+05  0.000E+00  0.000E+00  0.000E+00  3.96688E+01  4.756E-01  2.000E+01  2.000E+04 -1.277E+00
   1   14   21     1    21    7.3975E+05 -1.8466E+04   7.5821E+05  0.000E+00  0.000E+00  0.000E+00  3.92001E+01  4.842E-01  2.000E+01  2.000E+04 -9.233E-01
   1   14   22     1    22    7.5821E+05 -1.2858E+03   7.5950E+05  0.000E+00  0.000E+00  0.000E+00  3.87266E+01  4.880E-01  2.000E+01  2.000E+04 -6.429E-02
   1    9   30     2     1    5.0000E+04 -2.6353E+04   7.6353E+04  0.000E+00  0.000E+00  0.000E+00  4.02583E+01  1.333E-01  2.000E+01  2.000E+04 -1.318E+00
   1    9   29     2     2    7.6353E+04 -2.8806E+04   1.0516E+05  0.000E+00  0.000E+00  0.000E+00  4.00407E+01  1.657E-01  2.000E+01  2.000E+04 -1.440E+00
   1    9   28     2     3    1.0516E+05 -3.3049E+04   1.3821E+05  0.000E+00  0.000E+00  0.000E+00  3.98226E+01  1.976E-01  2.000E+01  2.000E+04 -1.652E+00
   1    9   27     2     4    1.3821E+05 -4.7015E+04   1.8522E+05  0.000E+00  0.000E+00  0.000E+00  3.96093E+01  2.343E-01  2.000E+01  2.000E+04 -2.351E+00
   1   10   26     2     5    1.8522E+05 -3.2895E+04   2.1812E+05  0.000E+00  0.000E+00  0.000E+00  3.93925E+01  2.675E-01  2.000E+01  2.000E+04 -1.645E+00
   1   11   25     2     6    2.1812E+05 -2.4476E+04   2.4259E+05  0.000E+00  0.000E+00  0.000E+00  3.91647E+01  2.897E-01  2.000E+01  2.000E+04 -1.224E+00
   1   12   24     2     7    2.4259E+05 -1.7873E+04   2.6047E+05  0.000E+00  0.000E+00  0.000E+00  3.89304E+01  3.054E-01  2.000E+01  2.000E+04 -8.936E-01
   1   13   23     2     8    2.6047E+05 -1.2530E+04   2.7300E+05  0.000E+00  0.000E+00  0.000E+00  3.86914E+01  3.164E-01  2.000E+01  2.000E+04 -6.265E-01
   1   14   22     2     9    2.7300E+05 -6.8538E+03   2.7985E+05  0.000E+00  0.000E+00  0.000E+00  3.84482E+01  3.232E-01  2.000E+01  2.000E+04 -3.427E-01
   1   14   22     3     1    1.0394E+06 -1.4884E+04   1.0542E+06  0.000E+00  0.000E+00  0.000E+00  3.80467E+01  4.912E-01  2.000E+01  2.000E+04 -7.442E-01
   1   15   23     3     2    1.0542E+06 -2.1706E+04   1.0759E+06  0.000E+00  0.000E+00  0.000E+00  3.71630E+01  4.963E-01  2.000E+01  2.000E+04 -1.085E+00
   1   15   24     3     3    1.0759E+06 -1.8072E+04   1.0940E+06  0.000E+00  0.000E+00  0.000E+00  3.62796E+01  5.018E-01  2.000E+01  2.000E+04 -9.036E-01
   1   15   25     3     4    1.0940E+06 -1.7869E+04   1.1119E+06  0.000E+00  0.000E+00  0.000E+00  3.53957E+01  5.068E-01  2.000E+01  2.000E+04 -8.935E-01
   1   15   26     3     5    1.1119E+06 -2.0850E+04   1.1327E+06  0.000E+00  0.000E+00  0.000E+00  3.45121E+01  5.121E-01  2.000E+01  2.000E+04 -1.043E+00
   1   16   27     3     6    1.1327E+06 -2.7200E+04   1.1599E+06  0.000E+00  0.000E+00  0.000E+00  3.36298E+01  5.187E-01  2.000E+01  2.000E+04 -1.360E+00
   1   17   28     3     7    1.1599E+06 -3.3917E+04   1.1939E+06  0.000E+00  0.000E+00  0.000E+00  3.27491E+01  5.269E-01  2.000E+01  2.000E+04 -1.696E+00
   1   18   29     3     8    1.1939E+06 -4.4796E+04   1.2386E+06  0.000E+00  0.000E+00  0.000E+00  3.18708E+01  5.374E-01  2.000E+01  2.000E+04 -2.240E+00
   1   18   30     3     9    1.2386E+06 -4.2139E+04   1.2808E+06  0.000E+00  0.000E+00  0.000E+00  3.09933E+01  5.489E-01  2.000E+01  2.000E+04 -2.107E+00



1
              HEAD IN LAYER   1 AT END OF TIME STEP   1 IN STRESS PERIOD    9
  ---------------------------------------------------------------------------

          1      2      3      4      5      6      7      8      9     10
         11     12     13     14     15     16     17     18     19     20
         21     22     23     24     25     26     27     28     29     30
 .........................................................................
   1  ****** ****** ****** ****** ****** ****** ****** ****** ****** ******
      ****** ****** ****** ****** ****** ****** ****** ****** ****** ******
      ****** ****** ****** ****** ****** ****** ****** ****** ****** ******
   2  ****** ****** ****** ****** ****** ****** ****** ****** ****** ******
      ****** ****** ****** ****** ****** ****** ****** ****** ****** ******
      ****** ****** ****** ****** ****** ****** ****** ****** ****** ******
   3  ****** ****** ****** ****** ****** ****** ****** ****** ****** ******
      ****** ****** ****** ****** ****** ****** ****** ****** ****** ******
      ****** ****** ****** ****** ****** ****** ****** ****** ****** ******
   4  ****** ****** ****** ****** ****** ****** ****** ****** ****** ******
      ****** ****** ****** ****** ****** ****** ****** ****** ****** ******
      ****** ****** ****** ****** ****** ****** ****** ****** ****** ******
   5  ****** ****** ****** ****** ****** ****** ****** ****** ****** ******
      ****** ****** ****** ****** ****** ****** ****** ****** ****** ******
      ****** ****** ****** ****** ****** ****** ****** ****** ****** ******
   6  ****** ****** ****** ****** ****** ****** ****** ****** ****** ******
      ****** ****** ****** ****** ****** ****** ****** ****** ****** ******
      ****** ****** ****** ****** ****** ****** ****** ****** ****** ******
   7  ****** ****** ****** ****** ****** ****** ****** ****** ****** ******
      ****** ****** ****** ****** ****** ****** ****** ****** ****** ******
      ****** ****** ****** ****** ****** ****** ****** ****** ****** ******
   8  ****** ****** ****** ****** ****** ****** ****** ****** ****** ******
      ****** ****** ****** ****** ****** ****** ****** ****** ****** ******
      ****** ****** ****** ****** ****** ****** ****** ****** ****** ******
   9  ****** ****** ****** ****** ****** ****** ****** ****** ****** ******
      ****** ****** ****** ****** ****** ****** ****** ****** ****** ******
      ****** ****** ****** ****** ****** ****** ****** ****** ****** ******
  10  ****** ****** ****** ****** ****** ****** ****** ****** ****** ******
      ****** ****** ****** ****** ****** ****** ****** ****** ****** ******
      ****** ****** ****** ****** ****** ****** ****** ****** ****** ******
  11  ****** ****** ****** ****** ****** ****** ****** ****** ****** ******
      ****** ****** ****** ****** ****** ****** ****** ****** ****** ******
      ****** ****** ****** ****** ****** ****** ****** ****** ****** ******
  12  ****** ****** ****** ****** ****** ****** ****** ****** ****** ******
      ****** ****** ****** ****** ****** ****** ****** ****** ****** ******
      ****** ****** ****** ****** ****** ****** ****** ****** ****** ******
  13  ****** ****** ****** ****** ****** ****** ****** ****** ****** ******
      ****** ****** ****** ****** ****** ****** ****** ****** ****** ******
      ****** ****** ****** ****** ****** ****** ****** ****** ****** ******
  14  ****** ****** ****** ****** ****** ****** ****** ****** ****** ******
      ****** ****** ****** ****** ****** ****** ****** ****** ****** ******
      ****** ****** ****** ****** ****** ****** ****** ****** ****** ******
  15  ****** ****** ****** ****** ****** ****** ****** ****** ****** ******
      ****** ****** ****** ****** ****** ****** ****** ****** ****** ******
      ****** ****** ****** ****** ****** ****** ****** ****** ****** ******
  16  ****** ****** ****** ****** ****** ****** ****** ****** ****** ******
      ****** ****** ****** ****** ****** ****** ****** ****** ****** ******
      ****** ****** ****** ****** ****** ****** ****** ****** ****** ******
  17  ****** ****** ****** ****** ****** ****** ****** ****** ****** ******
      ****** ****** ****** ****** ****** ****** ****** ****** ****** ******
      ****** ****** ****** ****** ****** ****** ****** ****** ****** ******
  18  ****** ****** ****** ****** ****** ****** ****** ****** ****** ******
      ****** ****** ****** ****** ****** ****** ****** ****** ****** ******
      ****** ****** ****** ****** ****** ****** ****** ****** ****** ******
  19  ****** ****** ****** ****** ****** ****** ****** ****** ****** ******
      ****** ****** ****** ****** ****** ****** ****** ****** ****** ******
      ****** ****** ****** ****** ****** ****** ****** ****** ****** ******
  20  ****** ****** ****** ****** ****** ****** ****** ****** ****** ******
      ****** ****** ****** ****** ****** ****** ****** ****** ****** ******
      ****** ****** ****** ****** ****** ****** ****** ****** ****** ******
  21  ****** ****** ****** ****** ****** ****** ****** ****** ****** ******
      ****** ****** ****** ****** ****** ****** ****** ****** ****** ******
      ****** ****** ****** ****** ****** ****** ****** ****** ****** ******
  22  ****** ****** ****** ****** ****** ****** ****** ****** ****** ******
      ****** ****** ****** ****** ****** ****** ****** ****** ****** ******
      ****** ****** ****** ****** ****** ****** ****** ****** ****** ******
  23  ****** ****** ****** ****** ****** ****** ****** ****** ****** ******
      ****** ****** ****** ****** ****** ****** ****** ****** ****** ******
      ****** ****** ****** ****** ****** ****** ****** ****** ****** ******
  24  ****** ****** ****** ****** ****** ****** ****** ****** ****** ******
      ****** ****** ****** ****** ****** ****** ****** ****** ****** ******
      ****** ****** ****** ****** ****** ****** ****** ****** ****** ******
  25  ****** ****** ****** ****** ****** ****** ****** ****** ****** ******
      ****** ****** ****** ****** ****** ****** ****** ****** ****** ******
      ****** ****** ****** ****** ****** ****** ****** ****** ****** ******

 HEAD WILL BE SAVED ON UNIT   51 AT END OF TIME STEP    1, STRESS PERIOD    9
1
  VOLUMETRIC BUDGET FOR ENTIRE MODEL AT END OF TIME STEP    1, STRESS PERIOD   9
  ------------------------------------------------------------------------------

     CUMULATIVE VOLUMES      L**3       RATES FOR THIS TIME STEP      L**3/T
     ------------------                 ------------------------

           IN:                                      IN:
           ---                                      ---
             STORAGE =    21130333.7027               STORAGE =         983.1993
       CONSTANT HEAD =   976938521.4535         CONSTANT HEAD =     1196221.7385
               WELLS =           0.0000                 WELLS =           0.0000
            RECHARGE =    18878400.0000              RECHARGE =       13800.0000
      STREAM LEAKAGE =           0.0000        STREAM LEAKAGE =           0.0000

            TOTAL IN =  1016947255.1562              TOTAL IN =     1211004.9379

          OUT:                                     OUT:
          ----                                     ----
             STORAGE =      921583.5093               STORAGE =         219.3110
       CONSTANT HEAD =           0.0000         CONSTANT HEAD =           0.0000
               WELLS =    66215136.5000                 WELLS =       80000.0000
            RECHARGE =           0.0000              RECHARGE =           0.0000
      STREAM LEAKAGE =   949810543.3853        STREAM LEAKAGE =     1130785.6434

           TOTAL OUT =  1016947263.3946             TOTAL OUT =     1211004.9544

            IN - OUT =          -8.2385              IN - OUT =      -1.6541E-02

 PERCENT DISCREPANCY =          -0.00     PERCENT DISCREPANCY =          -0.00






         TIME SUMMARY AT END OF TIME STEP    1 IN STRESS PERIOD    9
                    SECONDS     MINUTES      HOURS       DAYS        YEARS
                    -----------------------------------------------------------
   TIME STEP LENGTH 7.94880E+06 1.32480E+05  2208.0      92.000     0.25188    
 STRESS PERIOD TIME 7.94880E+06 1.32480E+05  2208.0      92.000     0.25188    
         TOTAL TIME 7.10208E+07 1.18368E+06  19728.      822.00      2.2505    
1
1
                            STRESS PERIOD NO.   10, LENGTH =   91.00000    
                            -----------------------------------------------

                              NUMBER OF TIME STEPS =     1

                               MULTIPLIER FOR DELT =     1.500

                            INITIAL TIME STEP SIZE =   91.00000    

 WELL NO.  LAYER   ROW   COL   STRESS RATE         
 --------------------------------------------------
      1      1      8     16     -0.3000E+05
      2      1     21     24       0.000    
      3      1     23     11     -0.5250E+05

      3 WELLS

                 RECHARGE =  2.000000E-03

 REUSING STREAM SEGMENT DATA FROM LAST STRESS PERIOD
 
 SOLVING FOR HEAD 


     6 CALLS TO PCG ROUTINE FOR TIME STEP   1 IN STRESS PERIOD   10
    23 TOTAL ITERATIONS

 OUTPUT CONTROL FOR STRESS PERIOD   10   TIME STEP    1
    SAVE BUDGET
    SAVE HEAD FOR ALL LAYERS
    PRINT HEAD FOR ALL LAYERS
 UBDSV2 SAVING "STREAMFLOW OUT  " ON UNIT  50 AT TIME STEP  1, STRESS PERIOD  10



 STREAM LISTING     PERIOD     10   STEP        1

 LAYER ROW COL. STREAM  RCH.  FLOW INTO     FLOW TO   FLOW OUT OF   OVRLND.     DIRECT     STREAM       STREAM     STREAM     STREAM   STREAMBED  STREAMBED
                SEG.NO.  NO.  STRM. RCH.    AQUIFER    STRM. RCH.    RUNOFF     PRECIP       ET          HEAD       DEPTH      WIDTH   CONDCTNC.   GRADIENT

   1   13    1     1     1    1.0000E+05 -2.8098E+04   1.2810E+05  0.000E+00  0.000E+00  0.000E+00  4.84179E+01  1.565E-01  2.000E+01  2.000E+04 -1.405E+00
   1   13    2     1     2    1.2810E+05 -3.7871E+04   1.6597E+05  0.000E+00  0.000E+00  0.000E+00  4.79664E+01  1.823E-01  2.000E+01  2.000E+04 -1.894E+00
   1   14    3     1     3    1.6597E+05 -3.3291E+04   1.9926E+05  0.000E+00  0.000E+00  0.000E+00  4.75144E+01  2.076E-01  2.000E+01  2.000E+04 -1.665E+00
   1   15    4     1     4    1.9926E+05 -3.2429E+04   2.3169E+05  0.000E+00  0.000E+00  0.000E+00  4.70588E+01  2.293E-01  2.000E+01  2.000E+04 -1.621E+00
   1   16    5     1     5    2.3169E+05 -3.3733E+04   2.6542E+05  0.000E+00  0.000E+00  0.000E+00  4.66021E+01  2.498E-01  2.000E+01  2.000E+04 -1.687E+00
   1   16    6     1     6    2.6542E+05 -2.9364E+04   2.9479E+05  0.000E+00  0.000E+00  0.000E+00  4.61434E+01  2.684E-01  2.000E+01  2.000E+04 -1.468E+00
   1   16    7     1     7    2.9479E+05 -2.9062E+04   3.2385E+05  0.000E+00  0.000E+00  0.000E+00  4.56825E+01  2.848E-01  2.000E+01  2.000E+04 -1.453E+00
   1   16    8     1     8    3.2385E+05 -2.9107E+04   3.5295E+05  0.000E+00  0.000E+00  0.000E+00  4.52211E+01  3.006E-01  2.000E+01  2.000E+04 -1.455E+00
   1   16    9     1     9    3.5295E+05 -2.9053E+04   3.8201E+05  0.000E+00  0.000E+00  0.000E+00  4.47590E+01  3.158E-01  2.000E+01  2.000E+04 -1.453E+00
   1   16   10     1    10    3.8201E+05 -2.8974E+04   4.1098E+05  0.000E+00  0.000E+00  0.000E+00  4.42965E+01  3.306E-01  2.000E+01  2.000E+04 -1.449E+00
   1   16   11     1    11    4.1098E+05 -2.9510E+04   4.4049E+05  0.000E+00  0.000E+00  0.000E+00  4.38336E+01  3.450E-01  2.000E+01  2.000E+04 -1.476E+00
   1   16   12     1    12    4.4049E+05 -3.4923E+04   4.7542E+05  0.000E+00  0.000E+00  0.000E+00  4.33718E+01  3.604E-01  2.000E+01  2.000E+04 -1.746E+00
   1   15   13     1    13    4.7542E+05 -3.3984E+04   5.0940E+05  0.000E+00  0.000E+00  0.000E+00  4.29106E+01  3.765E-01  2.000E+01  2.000E+04 -1.699E+00
   1   14   14     1    14    5.0940E+05 -3.4503E+04   5.4390E+05  0.000E+00  0.000E+00  0.000E+00  4.24488E+01  3.920E-01  2.000E+01  2.000E+04 -1.725E+00
   1   13   15     1    15    5.4390E+05 -3.6276E+04   5.8018E+05  0.000E+00  0.000E+00  0.000E+00  4.19871E+01  4.076E-01  2.000E+01  2.000E+04 -1.814E+00
   1   12   16     1    16    5.8018E+05 -4.1252E+04   6.2143E+05  0.000E+00  0.000E+00  0.000E+00  4.15265E+01  4.242E-01  2.000E+01  2.000E+04 -2.063E+00
   1   12   17     1    17    6.2143E+05 -3.2360E+04   6.5379E+05  0.000E+00  0.000E+00  0.000E+00  4.10646E+01  4.396E-01  2.000E+01  2.000E+04 -1.618E+00
   1   12   18     1    18    6.5379E+05 -3.1111E+04   6.8490E+05  0.000E+00  0.000E+00  0.000E+00  4.06003E+01  4.526E-01  2.000E+01  2.000E+04 -1.556E+00
   1   12   19     1    19    6.8490E+05 -3.5412E+04   7.2031E+05  0.000E+00  0.000E+00  0.000E+00  4.01364E+01  4.660E-01  2.000E+01  2.000E+04 -1.771E+00
   1   13   20     1    20    7.2031E+05 -2.6478E+04   7.4679E+05  0.000E+00  0.000E+00  0.000E+00  3.96714E+01  4.782E-01  2.000E+01  2.000E+04 -1.324E+00
   1   14   21     1    21    7.4679E+05 -1.9715E+04   7.6651E+05  0.000E+00  0.000E+00  0.000E+00  3.92031E+01  4.871E-01  2.000E+01  2.000E+04 -9.857E-01
   1   14   22     1    22    7.6651E+05 -1.8060E+03   7.6831E+05  0.000E+00  0.000E+00  0.000E+00  3.87299E+01  4.913E-01  2.000E+01  2.000E+04 -9.030E-02
   1    9   30     2     1    5.0000E+04 -2.6843E+04   7.6843E+04  0.000E+00  0.000E+00  0.000E+00  4.02586E+01  1.336E-01  2.000E+01  2.000E+04 -1.342E+00
   1    9   29     2     2    7.6843E+04 -2.9293E+04   1.0614E+05  0.000E+00  0.000E+00  0.000E+00  4.00415E+01  1.665E-01  2.000E+01  2.000E+04 -1.465E+00
   1    9   28     2     3    1.0614E+05 -3.3548E+04   1.3968E+05  0.000E+00  0.000E+00  0.000E+00  3.98238E+01  1.988E-01  2.000E+01  2.000E+04 -1.677E+00
   1    9   27     2     4    1.3968E+05 -4.7614E+04   1.8730E+05  0.000E+00  0.000E+00  0.000E+00  3.96109E+01  2.359E-01  2.000E+01  2.000E+04 -2.381E+00
   1   10   26     2     5    1.8730E+05 -3.3544E+04   2.2084E+05  0.000E+00  0.000E+00  0.000E+00  3.93944E+01  2.694E-01  2.000E+01  2.000E+04 -1.677E+00
   1   11   25     2     6    2.2084E+05 -2.5131E+04   2.4597E+05  0.000E+00  0.000E+00  0.000E+00  3.91670E+01  2.920E-01  2.000E+01  2.000E+04 -1.257E+00
   1   12   24     2     7    2.4597E+05 -1.8509E+04   2.6448E+05  0.000E+00  0.000E+00  0.000E+00  3.89331E+01  3.081E-01  2.000E+01  2.000E+04 -9.254E-01
   1   13   23     2     8    2.6448E+05 -1.3148E+04   2.7763E+05  0.000E+00  0.000E+00  0.000E+00  3.86945E+01  3.195E-01  2.000E+01  2.000E+04 -6.574E-01
   1   14   22     2     9    2.7763E+05 -7.3715E+03   2.8500E+05  0.000E+00  0.000E+00  0.000E+00  3.84517E+01  3.267E-01  2.000E+01  2.000E+04 -3.686E-01
   1   14   22     3     1    1.0533E+06 -1.5391E+04   1.0687E+06  0.000E+00  0.000E+00  0.000E+00  3.80507E+01  4.951E-01  2.000E+01  2.000E+04 -7.695E-01
   1   15   23     3     2    1.0687E+06 -2.3858E+04   1.0926E+06  0.000E+00  0.000E+00  0.000E+00  3.71673E+01  5.006E-01  2.000E+01  2.000E+04 -1.193E+00
   1   15   24     3     3    1.0926E+06 -1.9905E+04   1.1125E+06  0.000E+00  0.000E+00  0.000E+00  3.62845E+01  5.067E-01  2.000E+01  2.000E+04 -9.952E-01
   1   15   25     3     4    1.1125E+06 -1.9535E+04   1.1320E+06  0.000E+00  0.000E+00  0.000E+00  3.54010E+01  5.121E-01  2.000E+01  2.000E+04 -9.767E-01
   1   15   26     3     5    1.1320E+06 -2.2365E+04   1.1544E+06  0.000E+00  0.000E+00  0.000E+00  3.45178E+01  5.178E-01  2.000E+01  2.000E+04 -1.118E+00
   1   16   27     3     6    1.1544E+06 -2.9582E+04   1.1839E+06  0.000E+00  0.000E+00  0.000E+00  3.36359E+01  5.248E-01  2.000E+01  2.000E+04 -1.479E+00
   1   17   28     3     7    1.1839E+06 -3.6645E+04   1.2206E+06  0.000E+00  0.000E+00  0.000E+00  3.27559E+01  5.337E-01  2.000E+01  2.000E+04 -1.832E+00
   1   18   29     3     8    1.2206E+06 -4.7609E+04   1.2682E+06  0.000E+00  0.000E+00  0.000E+00  3.18782E+01  5.448E-01  2.000E+01  2.000E+04 -2.380E+00
   1   18   30     3     9    1.2682E+06 -4.4008E+04   1.3122E+06  0.000E+00  0.000E+00  0.000E+00  3.10012E+01  5.568E-01  2.000E+01  2.000E+04 -2.200E+00



1
              HEAD IN LAYER   1 AT END OF TIME STEP   1 IN STRESS PERIOD   10
  ---------------------------------------------------------------------------

          1      2      3      4      5      6      7      8      9     10
         11     12     13     14     15     16     17     18     19     20
         21     22     23     24     25     26     27     28     29     30
 .........................................................................
   1  ****** ****** ****** ****** ****** ****** ****** ****** ****** ******
      ****** ****** ****** ****** ****** ****** ****** ****** ****** ******
      ****** ****** ****** ****** ****** ****** ****** ****** ****** ******
   2  ****** ****** ****** ****** ****** ****** ****** ****** ****** ******
      ****** ****** ****** ****** ****** ****** ****** ****** ****** ******
      ****** ****** ****** ****** ****** ****** ****** ****** ****** ******
   3  ****** ****** ****** ****** ****** ****** ****** ****** ****** ******
      ****** ****** ****** ****** ****** ****** ****** ****** ****** ******
      ****** ****** ****** ****** ****** ****** ****** ****** ****** ******
   4  ****** ****** ****** ****** ****** ****** ****** ****** ****** ******
      ****** ****** ****** ****** ****** ****** ****** ****** ****** ******
      ****** ****** ****** ****** ****** ****** ****** ****** ****** ******
   5  ****** ****** ****** ****** ****** ****** ****** ****** ****** ******
      ****** ****** ****** ****** ****** ****** ****** ****** ****** ******
      ****** ****** ****** ****** ****** ****** ****** ****** ****** ******
   6  ****** ****** ****** ****** ****** ****** ****** ****** ****** ******
      ****** ****** ****** ****** ****** ****** ****** ****** ****** ******
      ****** ****** ****** ****** ****** ****** ****** ****** ****** ******
   7  ****** ****** ****** ****** ****** ****** ****** ****** ****** ******
      ****** ****** ****** ****** ****** ****** ****** ****** ****** ******
      ****** ****** ****** ****** ****** ****** ****** ****** ****** ******
   8  ****** ****** ****** ****** ****** ****** ****** ****** ****** ******
      ****** ****** ****** ****** ****** ****** ****** ****** ****** ******
      ****** ****** ****** ****** ****** ****** ****** ****** ****** ******
   9  ****** ****** ****** ****** ****** ****** ****** ****** ****** ******
      ****** ****** ****** ****** ****** ****** ****** ****** ****** ******
      ****** ****** ****** ****** ****** ****** ****** ****** ****** ******
  10  ****** ****** ****** ****** ****** ****** ****** ****** ****** ******
      ****** ****** ****** ****** ****** ****** ****** ****** ****** ******
      ****** ****** ****** ****** ****** ****** ****** ****** ****** ******
  11  ****** ****** ****** ****** ****** ****** ****** ****** ****** ******
      ****** ****** ****** ****** ****** ****** ****** ****** ****** ******
      ****** ****** ****** ****** ****** ****** ****** ****** ****** ******
  12  ****** ****** ****** ****** ****** ****** ****** ****** ****** ******
      ****** ****** ****** ****** ****** ****** ****** ****** ****** ******
      ****** ****** ****** ****** ****** ****** ****** ****** ****** ******
  13  ****** ****** ****** ****** ****** ****** ****** ****** ****** ******
      ****** ****** ****** ****** ****** ****** ****** ****** ****** ******
      ****** ****** ****** ****** ****** ****** ****** ****** ****** ******
  14  ****** ****** ****** ****** ****** ****** ****** ****** ****** ******
      ****** ****** ****** ****** ****** ****** ****** ****** ****** ******
      ****** ****** ****** ****** ****** ****** ****** ****** ****** ******
  15  ****** ****** ****** ****** ****** ****** ****** ****** ****** ******
      ****** ****** ****** ****** ****** ****** ****** ****** ****** ******
      ****** ****** ****** ****** ****** ****** ****** ****** ****** ******
  16  ****** ****** ****** ****** ****** ****** ****** ****** ****** ******
      ****** ****** ****** ****** ****** ****** ****** ****** ****** ******
      ****** ****** ****** ****** ****** ****** ****** ****** ****** ******
  17  ****** ****** ****** ****** ****** ****** ****** ****** ****** ******
      ****** ****** ****** ****** ****** ****** ****** ****** ****** ******
      ****** ****** ****** ****** ****** ****** ****** ****** ****** ******
  18  ****** ****** ****** ****** ****** ****** ****** ****** ****** ******
      ****** ****** ****** ****** ****** ****** ****** ****** ****** ******
      ****** ****** ****** ****** ****** ****** ****** ****** ****** ******
  19  ****** ****** ****** ****** ****** ****** ****** ****** ****** ******
      ****** ****** ****** ****** ****** ****** ****** ****** ****** ******
      ****** ****** ****** ****** ****** ****** ****** ****** ****** ******
  20  ****** ****** ****** ****** ****** ****** ****** ****** ****** ******
      ****** ****** ****** ****** ****** ****** ****** ****** ****** ******
      ****** ****** ****** ****** ****** ****** ****** ****** ****** ******
  21  ****** ****** ****** ****** ****** ****** ****** ****** ****** ******
      ****** ****** ****** ****** ****** ****** ****** ****** ****** ******
      ****** ****** ****** ****** ****** ****** ****** ****** ****** ******
  22  ****** ****** ****** ****** ****** ****** ****** ****** ****** ******
      ****** ****** ****** ****** ****** ****** ****** ****** ****** ******
      ****** ****** ****** ****** ****** ****** ****** ****** ****** ******
  23  ****** ****** ****** ****** ****** ****** ****** ****** ****** ******
      ****** ****** ****** ****** ****** ****** ****** ****** ****** ******
      ****** ****** ****** ****** ****** ****** ****** ****** ****** ******
  24  ****** ****** ****** ****** ****** ****** ****** ****** ****** ******
      ****** ****** ****** ****** ****** ****** ****** ****** ****** ******
      ****** ****** ****** ****** ****** ****** ****** ****** ****** ******
  25  ****** ****** ****** ****** ****** ****** ****** ****** ****** ******
      ****** ****** ****** ****** ****** ****** ****** ****** ****** ******
      ****** ****** ****** ****** ****** ****** ****** ****** ****** ******

 HEAD WILL BE SAVED ON UNIT   51 AT END OF TIME STEP    1, STRESS PERIOD   10
1
  VOLUMETRIC BUDGET FOR ENTIRE MODEL AT END OF TIME STEP    1, STRESS PERIOD  10
  ------------------------------------------------------------------------------

     CUMULATIVE VOLUMES      L**3       RATES FOR THIS TIME STEP      L**3/T
     ------------------                 ------------------------

           IN:                                      IN:
           ---                                      ---
             STORAGE =    21229610.9059               STORAGE =        1090.9583
       CONSTANT HEAD =  1085423890.7621         CONSTANT HEAD =     1192146.9155
               WELLS =           0.0000                 WELLS =           0.0000
            RECHARGE =    23901600.0000              RECHARGE =       55200.0000
      STREAM LEAKAGE =           0.0000        STREAM LEAKAGE =           0.0000

            TOTAL IN =  1130555101.6681              TOTAL IN =     1248437.8738

          OUT:                                     OUT:
          ----                                     ----
             STORAGE =     1260785.5491               STORAGE =        3727.4949
       CONSTANT HEAD =           0.0000         CONSTANT HEAD =           0.0000
               WELLS =    73722704.7500                 WELLS =       82500.7500
            RECHARGE =           0.0000              RECHARGE =           0.0000
      STREAM LEAKAGE =  1055571617.0936        STREAM LEAKAGE =     1162209.6012

           TOTAL OUT =  1130555107.3927             TOTAL OUT =     1248437.8461

            IN - OUT =          -5.7246              IN - OUT =       2.7625E-02

 PERCENT DISCREPANCY =          -0.00     PERCENT DISCREPANCY =           0.00






         TIME SUMMARY AT END OF TIME STEP    1 IN STRESS PERIOD   10
                    SECONDS     MINUTES      HOURS       DAYS        YEARS
                    -----------------------------------------------------------
   TIME STEP LENGTH 7.86240E+06 1.31040E+05  2184.0      91.000     0.24914    
 STRESS PERIOD TIME 7.86240E+06 1.31040E+05  2184.0      91.000     0.24914    
         TOTAL TIME 7.88832E+07 1.31472E+06  21912.      913.00      2.4997    
1
1
                            STRESS PERIOD NO.   11, LENGTH =   91.00000    
                            -----------------------------------------------

                              NUMBER OF TIME STEPS =     1

                               MULTIPLIER FOR DELT =     1.500

                            INITIAL TIME STEP SIZE =   91.00000    

 WELL NO.  LAYER   ROW   COL   STRESS RATE         
 --------------------------------------------------
      1      1      8     16     -0.3000E+05
      2      1     21     24     -0.5000E+05

      2 WELLS

                 RECHARGE =   0.00000    

 REUSING STREAM SEGMENT DATA FROM LAST STRESS PERIOD
 
 SOLVING FOR HEAD 


     6 CALLS TO PCG ROUTINE FOR TIME STEP   1 IN STRESS PERIOD   11
    23 TOTAL ITERATIONS

 OUTPUT CONTROL FOR STRESS PERIOD   11   TIME STEP    1
    SAVE BUDGET
    SAVE HEAD FOR ALL LAYERS
    PRINT HEAD FOR ALL LAYERS
 UBDSV2 SAVING "STREAMFLOW OUT  " ON UNIT  50 AT TIME STEP  1, STRESS PERIOD  11



 STREAM LISTING     PERIOD     11   STEP        1

 LAYER ROW COL. STREAM  RCH.  FLOW INTO     FLOW TO   FLOW OUT OF   OVRLND.     DIRECT     STREAM       STREAM     STREAM     STREAM   STREAMBED  STREAMBED
                SEG.NO.  NO.  STRM. RCH.    AQUIFER    STRM. RCH.    RUNOFF     PRECIP       ET          HEAD       DEPTH      WIDTH   CONDCTNC.   GRADIENT

   1   13    1     1     1    1.0000E+05 -2.7329E+04   1.2733E+05  0.000E+00  0.000E+00  0.000E+00  4.84176E+01  1.562E-01  2.000E+01  2.000E+04 -1.366E+00
   1   13    2     1     2    1.2733E+05 -3.6940E+04   1.6427E+05  0.000E+00  0.000E+00  0.000E+00  4.79655E+01  1.814E-01  2.000E+01  2.000E+04 -1.847E+00
   1   14    3     1     3    1.6427E+05 -3.2448E+04   1.9672E+05  0.000E+00  0.000E+00  0.000E+00  4.75130E+01  2.062E-01  2.000E+01  2.000E+04 -1.622E+00
   1   15    4     1     4    1.9672E+05 -3.1718E+04   2.2843E+05  0.000E+00  0.000E+00  0.000E+00  4.70570E+01  2.274E-01  2.000E+01  2.000E+04 -1.586E+00
   1   16    5     1     5    2.2843E+05 -3.3318E+04   2.6175E+05  0.000E+00  0.000E+00  0.000E+00  4.66000E+01  2.477E-01  2.000E+01  2.000E+04 -1.666E+00
   1   16    6     1     6    2.6175E+05 -2.9073E+04   2.9082E+05  0.000E+00  0.000E+00  0.000E+00  4.61412E+01  2.662E-01  2.000E+01  2.000E+04 -1.454E+00
   1   16    7     1     7    2.9082E+05 -2.8865E+04   3.1969E+05  0.000E+00  0.000E+00  0.000E+00  4.56803E+01  2.826E-01  2.000E+01  2.000E+04 -1.443E+00
   1   16    8     1     8    3.1969E+05 -2.9013E+04   3.4870E+05  0.000E+00  0.000E+00  0.000E+00  4.52188E+01  2.983E-01  2.000E+01  2.000E+04 -1.451E+00
   1   16    9     1     9    3.4870E+05 -2.9058E+04   3.7776E+05  0.000E+00  0.000E+00  0.000E+00  4.47568E+01  3.136E-01  2.000E+01  2.000E+04 -1.453E+00
   1   16   10     1    10    3.7776E+05 -2.9052E+04   4.0681E+05  0.000E+00  0.000E+00  0.000E+00  4.42944E+01  3.285E-01  2.000E+01  2.000E+04 -1.453E+00
   1   16   11     1    11    4.0681E+05 -2.9612E+04   4.3642E+05  0.000E+00  0.000E+00  0.000E+00  4.38316E+01  3.430E-01  2.000E+01  2.000E+04 -1.481E+00
   1   16   12     1    12    4.3642E+05 -3.4969E+04   4.7139E+05  0.000E+00  0.000E+00  0.000E+00  4.33699E+01  3.585E-01  2.000E+01  2.000E+04 -1.748E+00
   1   15   13     1    13    4.7139E+05 -3.3403E+04   5.0480E+05  0.000E+00  0.000E+00  0.000E+00  4.29086E+01  3.745E-01  2.000E+01  2.000E+04 -1.670E+00
   1   14   14     1    14    5.0480E+05 -3.3621E+04   5.3842E+05  0.000E+00  0.000E+00  0.000E+00  4.24465E+01  3.897E-01  2.000E+01  2.000E+04 -1.681E+00
   1   13   15     1    15    5.3842E+05 -3.5274E+04   5.7369E+05  0.000E+00  0.000E+00  0.000E+00  4.19845E+01  4.049E-01  2.000E+01  2.000E+04 -1.764E+00
   1   12   16     1    16    5.7369E+05 -4.0259E+04   6.1395E+05  0.000E+00  0.000E+00  0.000E+00  4.15235E+01  4.212E-01  2.000E+01  2.000E+04 -2.013E+00
   1   12   17     1    17    6.1395E+05 -3.1509E+04   6.4546E+05  0.000E+00  0.000E+00  0.000E+00  4.10613E+01  4.363E-01  2.000E+01  2.000E+04 -1.575E+00
   1   12   18     1    18    6.4546E+05 -3.0259E+04   6.7572E+05  0.000E+00  0.000E+00  0.000E+00  4.05968E+01  4.490E-01  2.000E+01  2.000E+04 -1.513E+00
   1   12   19     1    19    6.7572E+05 -3.4465E+04   7.1018E+05  0.000E+00  0.000E+00  0.000E+00  4.01326E+01  4.621E-01  2.000E+01  2.000E+04 -1.723E+00
   1   13   20     1    20    7.1018E+05 -2.5376E+04   7.3556E+05  0.000E+00  0.000E+00  0.000E+00  3.96672E+01  4.740E-01  2.000E+01  2.000E+04 -1.269E+00
   1   14   21     1    21    7.3556E+05 -1.8348E+04   7.5391E+05  0.000E+00  0.000E+00  0.000E+00  3.91984E+01  4.825E-01  2.000E+01  2.000E+04 -9.174E-01
   1   14   22     1    22    7.5391E+05 -1.2459E+03   7.5515E+05  0.000E+00  0.000E+00  0.000E+00  3.87250E+01  4.863E-01  2.000E+01  2.000E+04 -6.230E-02
   1    9   30     2     1    5.0000E+04 -2.6216E+04   7.6216E+04  0.000E+00  0.000E+00  0.000E+00  4.02582E+01  1.332E-01  2.000E+01  2.000E+04 -1.311E+00
   1    9   29     2     2    7.6216E+04 -2.8669E+04   1.0489E+05  0.000E+00  0.000E+00  0.000E+00  4.00405E+01  1.655E-01  2.000E+01  2.000E+04 -1.433E+00
   1    9   28     2     3    1.0489E+05 -3.2908E+04   1.3779E+05  0.000E+00  0.000E+00  0.000E+00  3.98222E+01  1.972E-01  2.000E+01  2.000E+04 -1.645E+00
   1    9   27     2     4    1.3779E+05 -4.6841E+04   1.8463E+05  0.000E+00  0.000E+00  0.000E+00  3.96089E+01  2.339E-01  2.000E+01  2.000E+04 -2.342E+00
   1   10   26     2     5    1.8463E+05 -3.2717E+04   2.1735E+05  0.000E+00  0.000E+00  0.000E+00  3.93920E+01  2.670E-01  2.000E+01  2.000E+04 -1.636E+00
   1   11   25     2     6    2.1735E+05 -2.4305E+04   2.4166E+05  0.000E+00  0.000E+00  0.000E+00  3.91641E+01  2.891E-01  2.000E+01  2.000E+04 -1.215E+00
   1   12   24     2     7    2.4166E+05 -1.7722E+04   2.5938E+05  0.000E+00  0.000E+00  0.000E+00  3.89297E+01  3.047E-01  2.000E+01  2.000E+04 -8.861E-01
   1   13   23     2     8    2.5938E+05 -1.2411E+04   2.7179E+05  0.000E+00  0.000E+00  0.000E+00  3.86906E+01  3.156E-01  2.000E+01  2.000E+04 -6.205E-01
   1   14   22     2     9    2.7179E+05 -6.7979E+03   2.7859E+05  0.000E+00  0.000E+00  0.000E+00  3.84474E+01  3.224E-01  2.000E+01  2.000E+04 -3.399E-01
   1   14   22     3     1    1.0337E+06 -1.4843E+04   1.0486E+06  0.000E+00  0.000E+00  0.000E+00  3.80451E+01  4.896E-01  2.000E+01  2.000E+04 -7.421E-01
   1   15   23     3     2    1.0486E+06 -2.1628E+04   1.0702E+06  0.000E+00  0.000E+00  0.000E+00  3.71614E+01  4.947E-01  2.000E+01  2.000E+04 -1.081E+00
   1   15   24     3     3    1.0702E+06 -1.8006E+04   1.0882E+06  0.000E+00  0.000E+00  0.000E+00  3.62780E+01  5.002E-01  2.000E+01  2.000E+04 -9.003E-01
   1   15   25     3     4    1.0882E+06 -1.7797E+04   1.1060E+06  0.000E+00  0.000E+00  0.000E+00  3.53941E+01  5.052E-01  2.000E+01  2.000E+04 -8.898E-01
   1   15   26     3     5    1.1060E+06 -2.0752E+04   1.1268E+06  0.000E+00  0.000E+00  0.000E+00  3.45105E+01  5.105E-01  2.000E+01  2.000E+04 -1.038E+00
   1   16   27     3     6    1.1268E+06 -2.7101E+04   1.1539E+06  0.000E+00  0.000E+00  0.000E+00  3.36281E+01  5.170E-01  2.000E+01  2.000E+04 -1.355E+00
   1   17   28     3     7    1.1539E+06 -3.3826E+04   1.1877E+06  0.000E+00  0.000E+00  0.000E+00  3.27475E+01  5.253E-01  2.000E+01  2.000E+04 -1.691E+00
   1   18   29     3     8    1.1877E+06 -4.4724E+04   1.2324E+06  0.000E+00  0.000E+00  0.000E+00  3.18691E+01  5.358E-01  2.000E+01  2.000E+04 -2.236E+00
   1   18   30     3     9    1.2324E+06 -4.2064E+04   1.2745E+06  0.000E+00  0.000E+00  0.000E+00  3.09917E+01  5.472E-01  2.000E+01  2.000E+04 -2.103E+00



1
              HEAD IN LAYER   1 AT END OF TIME STEP   1 IN STRESS PERIOD   11
  ---------------------------------------------------------------------------

          1      2      3      4      5      6      7      8      9     10
         11     12     13     14     15     16     17     18     19     20
         21     22     23     24     25     26     27     28     29     30
 .........................................................................
   1  ****** ****** ****** ****** ****** ****** ****** ****** ****** ******
      ****** ****** ****** ****** ****** ****** ****** ****** ****** ******
      ****** ****** ****** ****** ****** ****** ****** ****** ****** ******
   2  ****** ****** ****** ****** ****** ****** ****** ****** ****** ******
      ****** ****** ****** ****** ****** ****** ****** ****** ****** ******
      ****** ****** ****** ****** ****** ****** ****** ****** ****** ******
   3  ****** ****** ****** ****** ****** ****** ****** ****** ****** ******
      ****** ****** ****** ****** ****** ****** ****** ****** ****** ******
      ****** ****** ****** ****** ****** ****** ****** ****** ****** ******
   4  ****** ****** ****** ****** ****** ****** ****** ****** ****** ******
      ****** ****** ****** ****** ****** ****** ****** ****** ****** ******
      ****** ****** ****** ****** ****** ****** ****** ****** ****** ******
   5  ****** ****** ****** ****** ****** ****** ****** ****** ****** ******
      ****** ****** ****** ****** ****** ****** ****** ****** ****** ******
      ****** ****** ****** ****** ****** ****** ****** ****** ****** ******
   6  ****** ****** ****** ****** ****** ****** ****** ****** ****** ******
      ****** ****** ****** ****** ****** ****** ****** ****** ****** ******
      ****** ****** ****** ****** ****** ****** ****** ****** ****** ******
   7  ****** ****** ****** ****** ****** ****** ****** ****** ****** ******
      ****** ****** ****** ****** ****** ****** ****** ****** ****** ******
      ****** ****** ****** ****** ****** ****** ****** ****** ****** ******
   8  ****** ****** ****** ****** ****** ****** ****** ****** ****** ******
      ****** ****** ****** ****** ****** ****** ****** ****** ****** ******
      ****** ****** ****** ****** ****** ****** ****** ****** ****** ******
   9  ****** ****** ****** ****** ****** ****** ****** ****** ****** ******
      ****** ****** ****** ****** ****** ****** ****** ****** ****** ******
      ****** ****** ****** ****** ****** ****** ****** ****** ****** ******
  10  ****** ****** ****** ****** ****** ****** ****** ****** ****** ******
      ****** ****** ****** ****** ****** ****** ****** ****** ****** ******
      ****** ****** ****** ****** ****** ****** ****** ****** ****** ******
  11  ****** ****** ****** ****** ****** ****** ****** ****** ****** ******
      ****** ****** ****** ****** ****** ****** ****** ****** ****** ******
      ****** ****** ****** ****** ****** ****** ****** ****** ****** ******
  12  ****** ****** ****** ****** ****** ****** ****** ****** ****** ******
      ****** ****** ****** ****** ****** ****** ****** ****** ****** ******
      ****** ****** ****** ****** ****** ****** ****** ****** ****** ******
  13  ****** ****** ****** ****** ****** ****** ****** ****** ****** ******
      ****** ****** ****** ****** ****** ****** ****** ****** ****** ******
      ****** ****** ****** ****** ****** ****** ****** ****** ****** ******
  14  ****** ****** ****** ****** ****** ****** ****** ****** ****** ******
      ****** ****** ****** ****** ****** ****** ****** ****** ****** ******
      ****** ****** ****** ****** ****** ****** ****** ****** ****** ******
  15  ****** ****** ****** ****** ****** ****** ****** ****** ****** ******
      ****** ****** ****** ****** ****** ****** ****** ****** ****** ******
      ****** ****** ****** ****** ****** ****** ****** ****** ****** ******
  16  ****** ****** ****** ****** ****** ****** ****** ****** ****** ******
      ****** ****** ****** ****** ****** ****** ****** ****** ****** ******
      ****** ****** ****** ****** ****** ****** ****** ****** ****** ******
  17  ****** ****** ****** ****** ****** ****** ****** ****** ****** ******
      ****** ****** ****** ****** ****** ****** ****** ****** ****** ******
      ****** ****** ****** ****** ****** ****** ****** ****** ****** ******
  18  ****** ****** ****** ****** ****** ****** ****** ****** ****** ******
      ****** ****** ****** ****** ****** ****** ****** ****** ****** ******
      ****** ****** ****** ****** ****** ****** ****** ****** ****** ******
  19  ****** ****** ****** ****** ****** ****** ****** ****** ****** ******
      ****** ****** ****** ****** ****** ****** ****** ****** ****** ******
      ****** ****** ****** ****** ****** ****** ****** ****** ****** ******
  20  ****** ****** ****** ****** ****** ****** ****** ****** ****** ******
      ****** ****** ****** ****** ****** ****** ****** ****** ****** ******
      ****** ****** ****** ****** ****** ****** ****** ****** ****** ******
  21  ****** ****** ****** ****** ****** ****** ****** ****** ****** ******
      ****** ****** ****** ****** ****** ****** ****** ****** ****** ******
      ****** ****** ****** ****** ****** ****** ****** ****** ****** ******
  22  ****** ****** ****** ****** ****** ****** ****** ****** ****** ******
      ****** ****** ****** ****** ****** ****** ****** ****** ****** ******
      ****** ****** ****** ****** ****** ****** ****** ****** ****** ******
  23  ****** ****** ****** ****** ****** ****** ****** ****** ****** ******
      ****** ****** ****** ****** ****** ****** ****** ****** ****** ******
      ****** ****** ****** ****** ****** ****** ****** ****** ****** ******
  24  ****** ****** ****** ****** ****** ****** ****** ****** ****** ******
      ****** ****** ****** ****** ****** ****** ****** ****** ****** ******
      ****** ****** ****** ****** ****** ****** ****** ****** ****** ******
  25  ****** ****** ****** ****** ****** ****** ****** ****** ****** ******
      ****** ****** ****** ****** ****** ****** ****** ****** ****** ******
      ****** ****** ****** ****** ****** ****** ****** ****** ****** ******

 HEAD WILL BE SAVED ON UNIT   51 AT END OF TIME STEP    1, STRESS PERIOD   11
1
  VOLUMETRIC BUDGET FOR ENTIRE MODEL AT END OF TIME STEP    1, STRESS PERIOD  11
  ------------------------------------------------------------------------------

     CUMULATIVE VOLUMES      L**3       RATES FOR THIS TIME STEP      L**3/T
     ------------------                 ------------------------

           IN:                                      IN:
           ---                                      ---
             STORAGE =    21609918.8757               STORAGE =        4179.2085
       CONSTANT HEAD =  1194740965.0225         CONSTANT HEAD =     1201286.5303
               WELLS =           0.0000                 WELLS =           0.0000
            RECHARGE =    23901600.0000              RECHARGE =           0.0000
      STREAM LEAKAGE =           0.0000        STREAM LEAKAGE =           0.0000

            TOTAL IN =  1240252483.8982              TOTAL IN =     1205465.7388

          OUT:                                     OUT:
          ----                                     ----
             STORAGE =     1350714.1914               STORAGE =         988.2268
       CONSTANT HEAD =           0.0000         CONSTANT HEAD =           0.0000
               WELLS =    81002704.7500                 WELLS =       80000.0000
            RECHARGE =           0.0000              RECHARGE =           0.0000
      STREAM LEAKAGE =  1157899074.3196        STREAM LEAKAGE =     1124477.5519

           TOTAL OUT =  1240252493.2610             TOTAL OUT =     1205465.7788

            IN - OUT =          -9.3628              IN - OUT =      -3.9981E-02

 PERCENT DISCREPANCY =          -0.00     PERCENT DISCREPANCY =          -0.00






         TIME SUMMARY AT END OF TIME STEP    1 IN STRESS PERIOD   11
                    SECONDS     MINUTES      HOURS       DAYS        YEARS
                    -----------------------------------------------------------
   TIME STEP LENGTH 7.86240E+06 1.31040E+05  2184.0      91.000     0.24914    
 STRESS PERIOD TIME 7.86240E+06 1.31040E+05  2184.0      91.000     0.24914    
         TOTAL TIME 8.67456E+07 1.44576E+06  24096.      1004.0      2.7488    
1
1
                            STRESS PERIOD NO.   12, LENGTH =   91.00000    
                            -----------------------------------------------

                              NUMBER OF TIME STEPS =     1

                               MULTIPLIER FOR DELT =     1.500

                            INITIAL TIME STEP SIZE =   91.00000    

 WELL NO.  LAYER   ROW   COL   STRESS RATE         
 --------------------------------------------------
      1      1      8     16     -0.3000E+05
      2      1     21     24     -0.3807E+05
      3      1     23     11     -0.1193E+05

      3 WELLS

                 RECHARGE =  1.000000E-03

 REUSING STREAM SEGMENT DATA FROM LAST STRESS PERIOD
 
 SOLVING FOR HEAD 


     6 CALLS TO PCG ROUTINE FOR TIME STEP   1 IN STRESS PERIOD   12
    22 TOTAL ITERATIONS

 OUTPUT CONTROL FOR STRESS PERIOD   12   TIME STEP    1
    SAVE BUDGET
    SAVE HEAD FOR ALL LAYERS
    PRINT HEAD FOR ALL LAYERS
 UBDSV2 SAVING "STREAMFLOW OUT  " ON UNIT  50 AT TIME STEP  1, STRESS PERIOD  12



 STREAM LISTING     PERIOD     12   STEP        1

 LAYER ROW COL. STREAM  RCH.  FLOW INTO     FLOW TO   FLOW OUT OF   OVRLND.     DIRECT     STREAM       STREAM     STREAM     STREAM   STREAMBED  STREAMBED
                SEG.NO.  NO.  STRM. RCH.    AQUIFER    STRM. RCH.    RUNOFF     PRECIP       ET          HEAD       DEPTH      WIDTH   CONDCTNC.   GRADIENT

   1   13    1     1     1    1.0000E+05 -2.7710E+04   1.2771E+05  0.000E+00  0.000E+00  0.000E+00  4.84177E+01  1.564E-01  2.000E+01  2.000E+04 -1.386E+00
   1   13    2     1     2    1.2771E+05 -3.7396E+04   1.6511E+05  0.000E+00  0.000E+00  0.000E+00  4.79659E+01  1.818E-01  2.000E+01  2.000E+04 -1.870E+00
   1   14    3     1     3    1.6511E+05 -3.2887E+04   1.9799E+05  0.000E+00  0.000E+00  0.000E+00  4.75137E+01  2.069E-01  2.000E+01  2.000E+04 -1.644E+00
   1   15    4     1     4    1.9799E+05 -3.2126E+04   2.3012E+05  0.000E+00  0.000E+00  0.000E+00  4.70579E+01  2.284E-01  2.000E+01  2.000E+04 -1.606E+00
   1   16    5     1     5    2.3012E+05 -3.3648E+04   2.6377E+05  0.000E+00  0.000E+00  0.000E+00  4.66011E+01  2.488E-01  2.000E+01  2.000E+04 -1.682E+00
   1   16    6     1     6    2.6377E+05 -2.9344E+04   2.9311E+05  0.000E+00  0.000E+00  0.000E+00  4.61424E+01  2.674E-01  2.000E+01  2.000E+04 -1.467E+00
   1   16    7     1     7    2.9311E+05 -2.9115E+04   3.2223E+05  0.000E+00  0.000E+00  0.000E+00  4.56816E+01  2.839E-01  2.000E+01  2.000E+04 -1.456E+00
   1   16    8     1     8    3.2223E+05 -2.9242E+04   3.5147E+05  0.000E+00  0.000E+00  0.000E+00  4.52202E+01  2.998E-01  2.000E+01  2.000E+04 -1.462E+00
   1   16    9     1     9    3.5147E+05 -2.9267E+04   3.8074E+05  0.000E+00  0.000E+00  0.000E+00  4.47583E+01  3.151E-01  2.000E+01  2.000E+04 -1.463E+00
   1   16   10     1    10    3.8074E+05 -2.9245E+04   4.0998E+05  0.000E+00  0.000E+00  0.000E+00  4.42959E+01  3.300E-01  2.000E+01  2.000E+04 -1.462E+00
   1   16   11     1    11    4.0998E+05 -2.9803E+04   4.3978E+05  0.000E+00  0.000E+00  0.000E+00  4.38332E+01  3.446E-01  2.000E+01  2.000E+04 -1.490E+00
   1   16   12     1    12    4.3978E+05 -3.5206E+04   4.7499E+05  0.000E+00  0.000E+00  0.000E+00  4.33715E+01  3.602E-01  2.000E+01  2.000E+04 -1.760E+00
   1   15   13     1    13    4.7499E+05 -3.3784E+04   5.0877E+05  0.000E+00  0.000E+00  0.000E+00  4.29103E+01  3.762E-01  2.000E+01  2.000E+04 -1.689E+00
   1   14   14     1    14    5.0877E+05 -3.4067E+04   5.4284E+05  0.000E+00  0.000E+00  0.000E+00  4.24484E+01  3.916E-01  2.000E+01  2.000E+04 -1.703E+00
   1   13   15     1    15    5.4284E+05 -3.5739E+04   5.7858E+05  0.000E+00  0.000E+00  0.000E+00  4.19865E+01  4.070E-01  2.000E+01  2.000E+04 -1.787E+00
   1   12   16     1    16    5.7858E+05 -4.0711E+04   6.1929E+05  0.000E+00  0.000E+00  0.000E+00  4.15257E+01  4.234E-01  2.000E+01  2.000E+04 -2.036E+00
   1   12   17     1    17    6.1929E+05 -3.1885E+04   6.5118E+05  0.000E+00  0.000E+00  0.000E+00  4.10636E+01  4.386E-01  2.000E+01  2.000E+04 -1.594E+00
   1   12   18     1    18    6.5118E+05 -3.0627E+04   6.8180E+05  0.000E+00  0.000E+00  0.000E+00  4.05992E+01  4.514E-01  2.000E+01  2.000E+04 -1.531E+00
   1   12   19     1    19    6.8180E+05 -3.4870E+04   7.1667E+05  0.000E+00  0.000E+00  0.000E+00  4.01351E+01  4.646E-01  2.000E+01  2.000E+04 -1.744E+00
   1   13   20     1    20    7.1667E+05 -2.5799E+04   7.4247E+05  0.000E+00  0.000E+00  0.000E+00  3.96698E+01  4.766E-01  2.000E+01  2.000E+04 -1.290E+00
   1   14   21     1    21    7.4247E+05 -1.8796E+04   7.6127E+05  0.000E+00  0.000E+00  0.000E+00  3.92012E+01  4.853E-01  2.000E+01  2.000E+04 -9.398E-01
   1   14   22     1    22    7.6127E+05 -1.4208E+03   7.6269E+05  0.000E+00  0.000E+00  0.000E+00  3.87278E+01  4.892E-01  2.000E+01  2.000E+04 -7.104E-02
   1    9   30     2     1    5.0000E+04 -2.6505E+04   7.6505E+04  0.000E+00  0.000E+00  0.000E+00  4.02584E+01  1.334E-01  2.000E+01  2.000E+04 -1.325E+00
   1    9   29     2     2    7.6505E+04 -2.8957E+04   1.0546E+05  0.000E+00  0.000E+00  0.000E+00  4.00409E+01  1.659E-01  2.000E+01  2.000E+04 -1.448E+00
   1    9   28     2     3    1.0546E+05 -3.3204E+04   1.3867E+05  0.000E+00  0.000E+00  0.000E+00  3.98229E+01  1.979E-01  2.000E+01  2.000E+04 -1.660E+00
   1    9   27     2     4    1.3867E+05 -4.7200E+04   1.8586E+05  0.000E+00  0.000E+00  0.000E+00  3.96098E+01  2.348E-01  2.000E+01  2.000E+04 -2.360E+00
   1   10   26     2     5    1.8586E+05 -3.3094E+04   2.1896E+05  0.000E+00  0.000E+00  0.000E+00  3.93931E+01  2.681E-01  2.000E+01  2.000E+04 -1.655E+00
   1   11   25     2     6    2.1896E+05 -2.4674E+04   2.4363E+05  0.000E+00  0.000E+00  0.000E+00  3.91655E+01  2.905E-01  2.000E+01  2.000E+04 -1.234E+00
   1   12   24     2     7    2.4363E+05 -1.8062E+04   2.6170E+05  0.000E+00  0.000E+00  0.000E+00  3.89313E+01  3.063E-01  2.000E+01  2.000E+04 -9.031E-01
   1   13   23     2     8    2.6170E+05 -1.2708E+04   2.7440E+05  0.000E+00  0.000E+00  0.000E+00  3.86923E+01  3.173E-01  2.000E+01  2.000E+04 -6.354E-01
   1   14   22     2     9    2.7440E+05 -6.9922E+03   2.8140E+05  0.000E+00  0.000E+00  0.000E+00  3.84493E+01  3.243E-01  2.000E+01  2.000E+04 -3.496E-01
   1   14   22     3     1    1.0441E+06 -1.5016E+04   1.0591E+06  0.000E+00  0.000E+00  0.000E+00  3.80481E+01  4.925E-01  2.000E+01  2.000E+04 -7.508E-01
   1   15   23     3     2    1.0591E+06 -2.2243E+04   1.0813E+06  0.000E+00  0.000E+00  0.000E+00  3.71644E+01  4.977E-01  2.000E+01  2.000E+04 -1.112E+00
   1   15   24     3     3    1.0813E+06 -1.8529E+04   1.0999E+06  0.000E+00  0.000E+00  0.000E+00  3.62812E+01  5.034E-01  2.000E+01  2.000E+04 -9.265E-01
   1   15   25     3     4    1.0999E+06 -1.8288E+04   1.1182E+06  0.000E+00  0.000E+00  0.000E+00  3.53974E+01  5.085E-01  2.000E+01  2.000E+04 -9.144E-01
   1   15   26     3     5    1.1182E+06 -2.1239E+04   1.1394E+06  0.000E+00  0.000E+00  0.000E+00  3.45139E+01  5.139E-01  2.000E+01  2.000E+04 -1.062E+00
   1   16   27     3     6    1.1394E+06 -2.7797E+04   1.1672E+06  0.000E+00  0.000E+00  0.000E+00  3.36317E+01  5.206E-01  2.000E+01  2.000E+04 -1.390E+00
   1   17   28     3     7    1.1672E+06 -3.4595E+04   1.2018E+06  0.000E+00  0.000E+00  0.000E+00  3.27512E+01  5.290E-01  2.000E+01  2.000E+04 -1.730E+00
   1   18   29     3     8    1.2018E+06 -4.5491E+04   1.2473E+06  0.000E+00  0.000E+00  0.000E+00  3.18729E+01  5.396E-01  2.000E+01  2.000E+04 -2.275E+00
   1   18   30     3     9    1.2473E+06 -4.2607E+04   1.2899E+06  0.000E+00  0.000E+00  0.000E+00  3.09956E+01  5.512E-01  2.000E+01  2.000E+04 -2.130E+00



1
              HEAD IN LAYER   1 AT END OF TIME STEP   1 IN STRESS PERIOD   12
  ---------------------------------------------------------------------------

          1      2      3      4      5      6      7      8      9     10
         11     12     13     14     15     16     17     18     19     20
         21     22     23     24     25     26     27     28     29     30
 .........................................................................
   1  ****** ****** ****** ****** ****** ****** ****** ****** ****** ******
      ****** ****** ****** ****** ****** ****** ****** ****** ****** ******
      ****** ****** ****** ****** ****** ****** ****** ****** ****** ******
   2  ****** ****** ****** ****** ****** ****** ****** ****** ****** ******
      ****** ****** ****** ****** ****** ****** ****** ****** ****** ******
      ****** ****** ****** ****** ****** ****** ****** ****** ****** ******
   3  ****** ****** ****** ****** ****** ****** ****** ****** ****** ******
      ****** ****** ****** ****** ****** ****** ****** ****** ****** ******
      ****** ****** ****** ****** ****** ****** ****** ****** ****** ******
   4  ****** ****** ****** ****** ****** ****** ****** ****** ****** ******
      ****** ****** ****** ****** ****** ****** ****** ****** ****** ******
      ****** ****** ****** ****** ****** ****** ****** ****** ****** ******
   5  ****** ****** ****** ****** ****** ****** ****** ****** ****** ******
      ****** ****** ****** ****** ****** ****** ****** ****** ****** ******
      ****** ****** ****** ****** ****** ****** ****** ****** ****** ******
   6  ****** ****** ****** ****** ****** ****** ****** ****** ****** ******
      ****** ****** ****** ****** ****** ****** ****** ****** ****** ******
      ****** ****** ****** ****** ****** ****** ****** ****** ****** ******
   7  ****** ****** ****** ****** ****** ****** ****** ****** ****** ******
      ****** ****** ****** ****** ****** ****** ****** ****** ****** ******
      ****** ****** ****** ****** ****** ****** ****** ****** ****** ******
   8  ****** ****** ****** ****** ****** ****** ****** ****** ****** ******
      ****** ****** ****** ****** ****** ****** ****** ****** ****** ******
      ****** ****** ****** ****** ****** ****** ****** ****** ****** ******
   9  ****** ****** ****** ****** ****** ****** ****** ****** ****** ******
      ****** ****** ****** ****** ****** ****** ****** ****** ****** ******
      ****** ****** ****** ****** ****** ****** ****** ****** ****** ******
  10  ****** ****** ****** ****** ****** ****** ****** ****** ****** ******
      ****** ****** ****** ****** ****** ****** ****** ****** ****** ******
      ****** ****** ****** ****** ****** ****** ****** ****** ****** ******
  11  ****** ****** ****** ****** ****** ****** ****** ****** ****** ******
      ****** ****** ****** ****** ****** ****** ****** ****** ****** ******
      ****** ****** ****** ****** ****** ****** ****** ****** ****** ******
  12  ****** ****** ****** ****** ****** ****** ****** ****** ****** ******
      ****** ****** ****** ****** ****** ****** ****** ****** ****** ******
      ****** ****** ****** ****** ****** ****** ****** ****** ****** ******
  13  ****** ****** ****** ****** ****** ****** ****** ****** ****** ******
      ****** ****** ****** ****** ****** ****** ****** ****** ****** ******
      ****** ****** ****** ****** ****** ****** ****** ****** ****** ******
  14  ****** ****** ****** ****** ****** ****** ****** ****** ****** ******
      ****** ****** ****** ****** ****** ****** ****** ****** ****** ******
      ****** ****** ****** ****** ****** ****** ****** ****** ****** ******
  15  ****** ****** ****** ****** ****** ****** ****** ****** ****** ******
      ****** ****** ****** ****** ****** ****** ****** ****** ****** ******
      ****** ****** ****** ****** ****** ****** ****** ****** ****** ******
  16  ****** ****** ****** ****** ****** ****** ****** ****** ****** ******
      ****** ****** ****** ****** ****** ****** ****** ****** ****** ******
      ****** ****** ****** ****** ****** ****** ****** ****** ****** ******
  17  ****** ****** ****** ****** ****** ****** ****** ****** ****** ******
      ****** ****** ****** ****** ****** ****** ****** ****** ****** ******
      ****** ****** ****** ****** ****** ****** ****** ****** ****** ******
  18  ****** ****** ****** ****** ****** ****** ****** ****** ****** ******
      ****** ****** ****** ****** ****** ****** ****** ****** ****** ******
      ****** ****** ****** ****** ****** ****** ****** ****** ****** ******
  19  ****** ****** ****** ****** ****** ****** ****** ****** ****** ******
      ****** ****** ****** ****** ****** ****** ****** ****** ****** ******
      ****** ****** ****** ****** ****** ****** ****** ****** ****** ******
  20  ****** ****** ****** ****** ****** ****** ****** ****** ****** ******
      ****** ****** ****** ****** ****** ****** ****** ****** ****** ******
      ****** ****** ****** ****** ****** ****** ****** ****** ****** ******
  21  ****** ****** ****** ****** ****** ****** ****** ****** ****** ******
      ****** ****** ****** ****** ****** ****** ****** ****** ****** ******
      ****** ****** ****** ****** ****** ****** ****** ****** ****** ******
  22  ****** ****** ****** ****** ****** ****** ****** ****** ****** ******
      ****** ****** ****** ****** ****** ****** ****** ****** ****** ******
      ****** ****** ****** ****** ****** ****** ****** ****** ****** ******
  23  ****** ****** ****** ****** ****** ****** ****** ****** ****** ******
      ****** ****** ****** ****** ****** ****** ****** ****** ****** ******
      ****** ****** ****** ****** ****** ****** ****** ****** ****** ******
  24  ****** ****** ****** ****** ****** ****** ****** ****** ****** ******
      ****** ****** ****** ****** ****** ****** ****** ****** ****** ******
      ****** ****** ****** ****** ****** ****** ****** ****** ****** ******
  25  ****** ****** ****** ****** ****** ****** ****** ****** ****** ******
      ****** ****** ****** ****** ****** ****** ****** ****** ****** ******
      ****** ****** ****** ****** ****** ****** ****** ****** ****** ******

 HEAD WILL BE SAVED ON UNIT   51 AT END OF TIME STEP    1, STRESS PERIOD   12
1
  VOLUMETRIC BUDGET FOR ENTIRE MODEL AT END OF TIME STEP    1, STRESS PERIOD  12
  ------------------------------------------------------------------------------

     CUMULATIVE VOLUMES      L**3       RATES FOR THIS TIME STEP      L**3/T
     ------------------                 ------------------------

           IN:                                      IN:
           ---                                      ---
             STORAGE =    21623267.5524               STORAGE =         146.6888
       CONSTANT HEAD =  1303359925.1536         CONSTANT HEAD =     1193614.9465
               WELLS =           0.0000                 WELLS =           0.0000
            RECHARGE =    26413200.0000              RECHARGE =       27600.0000
      STREAM LEAKAGE =           0.0000        STREAM LEAKAGE =           0.0000

            TOTAL IN =  1351396392.7059              TOTAL IN =     1221361.6352

          OUT:                                     OUT:
          ----                                     ----
             STORAGE =     1484795.0812               STORAGE =        1473.4164
       CONSTANT HEAD =           0.0000         CONSTANT HEAD =           0.0000
               WELLS =    88282704.7500                 WELLS =       80000.0000
            RECHARGE =           0.0000              RECHARGE =           0.0000
      STREAM LEAKAGE =  1261628900.1450        STREAM LEAKAGE =     1139888.1959

           TOTAL OUT =  1351396399.9763             TOTAL OUT =     1221361.6123

            IN - OUT =          -7.2703              IN - OUT =       2.2995E-02

 PERCENT DISCREPANCY =          -0.00     PERCENT DISCREPANCY =           0.00






         TIME SUMMARY AT END OF TIME STEP    1 IN STRESS PERIOD   12
                    SECONDS     MINUTES      HOURS       DAYS        YEARS
                    -----------------------------------------------------------
   TIME STEP LENGTH 7.86240E+06 1.31040E+05  2184.0      91.000     0.24914    
 STRESS PERIOD TIME 7.86240E+06 1.31040E+05  2184.0      91.000     0.24914    
         TOTAL TIME 9.46080E+07 1.57680E+06  26280.      1095.0      2.9979    
1

 Run end date and time (yyyy/mm/dd hh:mm:ss): 2018/09/26 15:13:46
 Elapsed run time:  0.061 Seconds

