                                  MODFLOW-2005     
      U.S. GEOLOGICAL SURVEY MODULAR FINITE-DIFFERENCE GROUND-WATER FLOW MODEL
                            VERSION 1.11.00 8/8/2013

 LIST FILE: supply2.lst
                         UNIT   10

 OPENING ..\data\supply.dis
 FILE TYPE:DIS   UNIT   11   STATUS:OLD    
 FORMAT:FORMATTED              ACCESS:SEQUENTIAL          

 OPENING ..\data\supply.ba6
 FILE TYPE:BAS6   UNIT   12   STATUS:OLD    
 FORMAT:FORMATTED              ACCESS:SEQUENTIAL          

 OPENING ..\data\supply_het.bc6
 FILE TYPE:BCF6   UNIT   13   STATUS:OLD    
 FORMAT:FORMATTED              ACCESS:SEQUENTIAL          

 OPENING ..\data\supply.rch
 FILE TYPE:RCH   UNIT   15   STATUS:OLD    
 FORMAT:FORMATTED              ACCESS:SEQUENTIAL          

 OPENING ..\data\supply2.sfr
 FILE TYPE:SFR   UNIT   16   STATUS:OLD    
 FORMAT:FORMATTED              ACCESS:SEQUENTIAL          

 OPENING ..\data\supply.oc
 FILE TYPE:OC   UNIT   17   STATUS:OLD    
 FORMAT:FORMATTED              ACCESS:SEQUENTIAL          

 OPENING ..\data\supply.pcg
 FILE TYPE:PCG   UNIT   18   STATUS:OLD    
 FORMAT:FORMATTED              ACCESS:SEQUENTIAL          

 OPENING supply2.wel
 FILE TYPE:WEL   UNIT   19   STATUS:OLD    
 FORMAT:FORMATTED              ACCESS:SEQUENTIAL          

 OPENING supply2sf.cbc
 FILE TYPE:DATA(BINARY)   UNIT   50   STATUS:UNKNOWN
 FORMAT:BINARY                 ACCESS:SEQUENTIAL          

 OPENING supply2hd.bhd
 FILE TYPE:DATA(BINARY)   UNIT   51   STATUS:UNKNOWN
 FORMAT:BINARY                 ACCESS:SEQUENTIAL          

 BAS -- BASIC PACKAGE, VERSION 7, 5/2/2005 INPUT READ FROM UNIT   12
 
 MODFLOW was compiled using uniform precision
 Precision of REAL and DOUBLE PRECISION variables:          15

 DISCRETIZATION INPUT DATA READ FROM UNIT   11
    1 LAYERS        25 ROWS        30 COLUMNS
   12 STRESS PERIOD(S) IN SIMULATION
 MODEL TIME UNIT IS DAYS
 MODEL LENGTH UNIT IS UNDEFINED
  Confining bed flag for each layer:
   0

                     DELR =   200.000    

                     DELC =   200.000    

 TOP ELEVATION OF LAYER 1 =  100.0000    

   MODEL LAYER BOTTOM EL. =   0.00000     FOR LAYER   1


 STRESS PERIOD     LENGTH       TIME STEPS     MULTIPLIER FOR DELT    SS FLAG
 ----------------------------------------------------------------------------
        1         92.00000          1                    1.500         TR
        2         91.00000          1                    1.500         TR
        3         91.00000          1                    1.500         TR
        4         91.00000          1                    1.500         TR
        5         92.00000          1                    1.500         TR
        6         91.00000          1                    1.500         TR
        7         91.00000          1                    1.500         TR
        8         91.00000          1                    1.500         TR
        9         92.00000          1                    1.500         TR
       10         91.00000          1                    1.500         TR
       11         91.00000          1                    1.500         TR
       12         91.00000          1                    1.500         TR

 TRANSIENT SIMULATION



 
 #MODOFC transient water supply sample problem                                   
 #                                                                               
 THE FREE FORMAT OPTION HAS BEEN SELECTED



                     BOUNDARY ARRAY FOR LAYER   1
 READING ON UNIT   12 WITH FORMAT: (20I4)              

 AQUIFER HEAD WILL BE SET TO   0.0000     AT ALL NO-FLOW NODES (IBOUND=0).



                       INITIAL HEAD FOR LAYER   1
 READING ON UNIT   12 WITH FORMAT: (10F13.0)           

 OUTPUT CONTROL IS SPECIFIED ONLY AT TIME STEPS FOR WHICH OUTPUT IS DESIRED
 COMPACT CELL-BY-CELL BUDGET FILES WILL BE WRITTEN
 HEAD PRINT FORMAT CODE IS  18    DRAWDOWN PRINT FORMAT CODE IS   0
 HEADS WILL BE SAVED ON UNIT   51    DRAWDOWNS WILL BE SAVED ON UNIT    0

 BCF -- BLOCK-CENTERED FLOW PACKAGE, VERSION 7, 5/2/2005
         INPUT READ FROM UNIT 13
 TRANSIENT SIMULATION
 HEAD AT CELLS THAT CONVERT TO DRY=   0.0000    
 WETTING CAPABILITY IS NOT ACTIVE
      LAYER  LAYER-TYPE CODE     INTERBLOCK T
      --------------------------------------------
         1            0          0 -- HARMONIC    

 COLUMN TO ROW ANISOTROPY =  1.000000    

     PRIMARY STORAGE COEF =  5.000000E-02 FOR LAYER   1



               TRANSMIS. ALONG ROWS FOR LAYER   1
 READING ON UNIT   13 WITH FORMAT: (FREE)              

 WEL -- WELL PACKAGE, VERSION 7, 5/2/2005 INPUT READ FROM UNIT   19
 # Well package input file written by MMProc
 No named parameters
 MAXIMUM OF      4 ACTIVE WELLS AT ONE TIME


     0 Well parameters

 RCH -- RECHARGE PACKAGE, VERSION 7, 5/2/2005 INPUT READ FROM UNIT   15
 No named parameters
 OPTION 1 -- RECHARGE TO TOP LAYER


     0 Recharge parameters

 SFR7 -- STREAMFLOW ROUTING PACKAGE, VERSION 1.0.7, 2013-01-15
         INPUT READ FROM UNIT  16
 #  Supply2 test problem for GWM-VI
 #  The eighth entry in the first data line is ISTCB2 -
 #    Setting this to a negative number indicates that
 #    streamflows out of the reach will be saved to a
 #    binary file.  The absolute value of ISTCB2 is the
 #    unit to which unformatted flows will be written.
 #
 No named parameters
 Segment information will not be 
 read by reach
 No named parameters
 No specifed inflow files


 NUMBER OF STREAM REACHES IS   40

 NUMBER OF STREAM SEGMENTS IS    3

 NUMBER OF STREAM PARAMETERS IS    0

 NUMBER OF STREAM SEGMENTS DEFINED USING PARAMETERS IS              0

 MAXIMUM ERROR FOR STREAM LEAKAGE RATES IS  1.00E-04

 CONSTANT FOR MANNINGS EQUATION IS  1.2839E+05





   STREAM NETWORK DESCRIPTION: 

   LAYER    ROW    COL   SEGMENT   REACH     LENGTH
                          NUMBER   NUMBER    IN CELL        
   --------------------------------------------------
      1     13      1       1        1    2.0000E+02
      1     13      2       1        2    2.0000E+02
      1     14      3       1        3    2.0000E+02
      1     15      4       1        4    2.0000E+02
      1     16      5       1        5    2.0000E+02
      1     16      6       1        6    2.0000E+02
      1     16      7       1        7    2.0000E+02
      1     16      8       1        8    2.0000E+02
      1     16      9       1        9    2.0000E+02
      1     16     10       1       10    2.0000E+02
      1     16     11       1       11    2.0000E+02
      1     16     12       1       12    2.0000E+02
      1     15     13       1       13    2.0000E+02
      1     14     14       1       14    2.0000E+02
      1     13     15       1       15    2.0000E+02
      1     12     16       1       16    2.0000E+02
      1     12     17       1       17    2.0000E+02
      1     12     18       1       18    2.0000E+02
      1     12     19       1       19    2.0000E+02
      1     13     20       1       20    2.0000E+02
      1     14     21       1       21    2.0000E+02
      1     14     22       1       22    2.0000E+02
      1      9     30       2        1    2.0000E+02
      1      9     29       2        2    2.0000E+02
      1      9     28       2        3    2.0000E+02
      1      9     27       2        4    2.0000E+02
      1     10     26       2        5    2.0000E+02
      1     11     25       2        6    2.0000E+02
      1     12     24       2        7    2.0000E+02
      1     13     23       2        8    2.0000E+02
      1     14     22       2        9    2.0000E+02
      1     14     22       3        1    2.0000E+02
      1     15     23       3        2    2.0000E+02
      1     15     24       3        3    2.0000E+02
      1     15     25       3        4    2.0000E+02
      1     15     26       3        5    2.0000E+02
      1     16     27       3        6    2.0000E+02
      1     17     28       3        7    2.0000E+02
      1     18     29       3        8    2.0000E+02
      1     18     30       3        9    2.0000E+02




 PCG -- CONJUGATE-GRADIENT SOLUTION PACKAGE, VERSION 7, 5/2/2005
 MAXIMUM OF    500 CALLS OF SOLUTION ROUTINE
 MAXIMUM OF      5 INTERNAL ITERATIONS PER CALL TO SOLUTION ROUTINE
 MATRIX PRECONDITIONING TYPE :    1



                                    SOLUTION BY THE CONJUGATE-GRADIENT METHOD
                                   -------------------------------------------
                    MAXIMUM NUMBER OF CALLS TO PCG ROUTINE =      500
                        MAXIMUM ITERATIONS PER CALL TO PCG =        5
                               MATRIX PRECONDITIONING TYPE =        1
        RELAXATION FACTOR (ONLY USED WITH PRECOND. TYPE 1) =    0.10000E+01
 PARAMETER OF POLYNOMIAL PRECOND. = 2 (2) OR IS CALCULATED :        0
                         HEAD CHANGE CRITERION FOR CLOSURE =    0.10000E-05
                     RESIDUAL CHANGE CRITERION FOR CLOSURE =    0.10000E+01
            PCG HEAD AND RESIDUAL CHANGE PRINTOUT INTERVAL =        1
     PRINTING FROM SOLVER IS LIMITED(1) OR SUPPRESSED (>1) =        1
                            STEADY-STATE DAMPING PARAMETER =    0.10000E+01
                               TRANSIENT DAMPING PARAMETER =    0.10000E+01
1
                            STRESS PERIOD NO.    1, LENGTH =   92.00000    
                            -----------------------------------------------

                              NUMBER OF TIME STEPS =     1

                               MULTIPLIER FOR DELT =     1.500

                            INITIAL TIME STEP SIZE =   92.00000    

 WELL NO.  LAYER   ROW   COL   STRESS RATE         
 --------------------------------------------------
      1      1     12     22      -9012.    
      2      1     10     16      -9566.    
      3      1      6     24      -8299.    
      4      1      6     17     -0.1213E+05

      4 WELLS

                 RECHARGE =  5.000000E-04



 CLASSIFICATION & COUNT OF STREAM SEGMENTS BASED ON SOURCE OF INFLOW:

                HEADWATER     DIVERSION     RECEIVES TRIBUTARY FLOW
                ---------     ---------     -----------------------
                     2              0               1



                    INPUT DATA FOR EACH STREAM SEGMENT
 ---------------------------------------------------------------------------------------------

 SEGMENT    SEG.     INFLOW   OVERLAND   STREAM    STREAM   ICALC  OUTFLOW  DIVERSION PRIORITY
    NO.    LENGTH     RATE     RUNOFF      ET       PPT.    METH.  TO SEG.  FROM SEG.    NO.

      1  4.400E+03 1.000E+05 0.000E+00 0.000E+00 0.000E+00    1        3        0        0
      2  1.800E+03 5.000E+04 0.000E+00 0.000E+00 0.000E+00    1        3        0        0
      3  1.800E+03 0.000E+00 0.000E+00 0.000E+00 0.000E+00    1        0        0        0


         STREAMBED PROPERTIES AND STREAM DIMENSIONS

 SEGMENT     BED HYD. COND.      BED THICKNESS     ELEV.-TOP OF BED     WIDTH OF STREAM     DEPTH OF STREAM    STREAM ROUGHNESS
    No.     UPPER     LOWER     UPPER     LOWER     UPPER     LOWER     UPPER     LOWER     UPPER     LOWER   CHANNEL      BANK

     1  5.000E+00 5.000E+00 1.000E+00 1.000E+00 4.850E+01 3.800E+01 2.000E+01 2.000E+01                     5.000E-02
     2  5.000E+00 5.000E+00 1.000E+00 1.000E+00 4.025E+01 3.800E+01 2.000E+01 2.000E+01                     5.000E-02
     3  5.000E+00 5.000E+00 1.000E+00 1.000E+00 3.800E+01 3.000E+01 2.000E+01 2.000E+01                     5.000E-02



 
 SOLVING FOR HEAD 


     9 CALLS TO PCG ROUTINE FOR TIME STEP   1 IN STRESS PERIOD    1
    36 TOTAL ITERATIONS

 OUTPUT CONTROL FOR STRESS PERIOD    1   TIME STEP    1
    SAVE BUDGET
    SAVE HEAD FOR ALL LAYERS
    PRINT HEAD FOR ALL LAYERS
 UBDSV2 SAVING "STREAMFLOW OUT  " ON UNIT  50 AT TIME STEP  1, STRESS PERIOD   1



 STREAM LISTING     PERIOD      1   STEP        1

 LAYER ROW COL. STREAM  RCH.  FLOW INTO     FLOW TO   FLOW OUT OF   OVRLND.     DIRECT     STREAM       STREAM     STREAM     STREAM   STREAMBED  STREAMBED
                SEG.NO.  NO.  STRM. RCH.    AQUIFER    STRM. RCH.    RUNOFF     PRECIP       ET          HEAD       DEPTH      WIDTH   CONDCTNC.   GRADIENT

   1   13    1     1     1    1.0000E+05 -6.1049E+03   1.0610E+05  0.000E+00  0.000E+00  0.000E+00  4.84086E+01  1.473E-01  2.000E+01  2.000E+04 -3.052E-01
   1   13    2     1     2    1.0610E+05 -7.5736E+03   1.1368E+05  0.000E+00  0.000E+00  0.000E+00  4.79372E+01  1.531E-01  2.000E+01  2.000E+04 -3.787E-01
   1   14    3     1     3    1.1368E+05 -2.1981E+03   1.1588E+05  0.000E+00  0.000E+00  0.000E+00  4.74639E+01  1.571E-01  2.000E+01  2.000E+04 -1.099E-01
   1   15    4     1     4    1.1588E+05 -2.2699E+03   1.1815E+05  0.000E+00  0.000E+00  0.000E+00  4.69885E+01  1.590E-01  2.000E+01  2.000E+04 -1.135E-01
   1   16    5     1     5    1.1815E+05 -7.1866E+03   1.2533E+05  0.000E+00  0.000E+00  0.000E+00  4.65150E+01  1.628E-01  2.000E+01  2.000E+04 -3.593E-01
   1   16    6     1     6    1.2533E+05 -4.3046E+03   1.2964E+05  0.000E+00  0.000E+00  0.000E+00  4.60423E+01  1.673E-01  2.000E+01  2.000E+04 -2.152E-01
   1   16    7     1     7    1.2964E+05 -4.1395E+03   1.3378E+05  0.000E+00  0.000E+00  0.000E+00  4.55684E+01  1.706E-01  2.000E+01  2.000E+04 -2.070E-01
   1   16    8     1     8    1.3378E+05 -4.0986E+03   1.3788E+05  0.000E+00  0.000E+00  0.000E+00  4.50943E+01  1.738E-01  2.000E+01  2.000E+04 -2.049E-01
   1   16    9     1     9    1.3788E+05 -4.0877E+03   1.4196E+05  0.000E+00  0.000E+00  0.000E+00  4.46201E+01  1.770E-01  2.000E+01  2.000E+04 -2.044E-01
   1   16   10     1    10    1.4196E+05 -4.0843E+03   1.4605E+05  0.000E+00  0.000E+00  0.000E+00  4.41459E+01  1.800E-01  2.000E+01  2.000E+04 -2.042E-01
   1   16   11     1    11    1.4605E+05 -4.1172E+03   1.5016E+05  0.000E+00  0.000E+00  0.000E+00  4.36717E+01  1.831E-01  2.000E+01  2.000E+04 -2.059E-01
   1   16   12     1    12    1.5016E+05 -6.9544E+03   1.5712E+05  0.000E+00  0.000E+00  0.000E+00  4.31985E+01  1.872E-01  2.000E+01  2.000E+04 -3.477E-01
   1   15   13     1    13    1.5712E+05 -7.1305E+03   1.6425E+05  0.000E+00  0.000E+00  0.000E+00  4.27264E+01  1.923E-01  2.000E+01  2.000E+04 -3.565E-01
   1   14   14     1    14    1.6425E+05 -7.4150E+03   1.7166E+05  0.000E+00  0.000E+00  0.000E+00  4.22543E+01  1.974E-01  2.000E+01  2.000E+04 -3.707E-01
   1   13   15     1    15    1.7166E+05 -7.2914E+03   1.7896E+05  0.000E+00  0.000E+00  0.000E+00  4.17821E+01  2.026E-01  2.000E+01  2.000E+04 -3.646E-01
   1   12   16     1    16    1.7896E+05 -6.2453E+03   1.8520E+05  0.000E+00  0.000E+00  0.000E+00  4.13095E+01  2.072E-01  2.000E+01  2.000E+04 -3.123E-01
   1   12   17     1    17    1.8520E+05 -4.7527E+03   1.8995E+05  0.000E+00  0.000E+00  0.000E+00  4.08360E+01  2.110E-01  2.000E+01  2.000E+04 -2.376E-01
   1   12   18     1    18    1.8995E+05 -4.9626E+03   1.9492E+05  0.000E+00  0.000E+00  0.000E+00  4.03620E+01  2.142E-01  2.000E+01  2.000E+04 -2.481E-01
   1   12   19     1    19    1.9492E+05 -5.9574E+03   2.0087E+05  0.000E+00  0.000E+00  0.000E+00  3.98883E+01  2.179E-01  2.000E+01  2.000E+04 -2.979E-01
   1   13   20     1    20    2.0087E+05 -5.2920E+03   2.0617E+05  0.000E+00  0.000E+00  0.000E+00  3.94147E+01  2.216E-01  2.000E+01  2.000E+04 -2.646E-01
   1   14   21     1    21    2.0617E+05 -5.6273E+03   2.1179E+05  0.000E+00  0.000E+00  0.000E+00  3.89410E+01  2.251E-01  2.000E+01  2.000E+04 -2.814E-01
   1   14   22     1    22    2.1179E+05  4.1592E+03   2.0763E+05  0.000E+00  0.000E+00  0.000E+00  3.84642E+01  2.256E-01  2.000E+01  2.000E+04  2.080E-01
   1    9   30     2     1    5.0000E+04 -4.6084E+03   5.4608E+04  0.000E+00  0.000E+00  0.000E+00  4.02440E+01  1.190E-01  2.000E+01  2.000E+04 -2.304E-01
   1    9   29     2     2    5.4608E+04 -4.8589E+03   5.9467E+04  0.000E+00  0.000E+00  0.000E+00  4.00004E+01  1.254E-01  2.000E+01  2.000E+04 -2.429E-01
   1    9   28     2     3    5.9467E+04 -5.0289E+03   6.4496E+04  0.000E+00  0.000E+00  0.000E+00  3.97568E+01  1.318E-01  2.000E+01  2.000E+04 -2.514E-01
   1    9   27     2     4    6.4496E+04 -7.2478E+03   7.1744E+04  0.000E+00  0.000E+00  0.000E+00  3.95145E+01  1.395E-01  2.000E+01  2.000E+04 -3.624E-01
   1   10   26     2     5    7.1744E+04 -6.3722E+03   7.8116E+04  0.000E+00  0.000E+00  0.000E+00  3.92727E+01  1.477E-01  2.000E+01  2.000E+04 -3.186E-01
   1   11   25     2     6    7.8116E+04 -5.6861E+03   8.3802E+04  0.000E+00  0.000E+00  0.000E+00  3.90297E+01  1.547E-01  2.000E+01  2.000E+04 -2.843E-01
   1   12   24     2     7    8.3802E+04 -4.0368E+03   8.7839E+04  0.000E+00  0.000E+00  0.000E+00  3.87852E+01  1.602E-01  2.000E+01  2.000E+04 -2.018E-01
   1   13   23     2     8    8.7839E+04 -1.0609E+03   8.8900E+04  0.000E+00  0.000E+00  0.000E+00  3.85381E+01  1.631E-01  2.000E+01  2.000E+04 -5.304E-02
   1   14   22     2     9    8.8900E+04  6.4077E+02   8.8259E+04  0.000E+00  0.000E+00  0.000E+00  3.82883E+01  1.633E-01  2.000E+01  2.000E+04  3.204E-02
   1   14   22     3     1    2.9589E+05 -9.3677E+03   3.0526E+05  0.000E+00  0.000E+00  0.000E+00  3.77879E+01  2.323E-01  2.000E+01  2.000E+04 -4.684E-01
   1   15   23     3     2    3.0526E+05 -1.9866E+03   3.0725E+05  0.000E+00  0.000E+00  0.000E+00  3.69016E+01  2.349E-01  2.000E+01  2.000E+04 -9.933E-02
   1   15   24     3     3    3.0725E+05 -1.5293E+03   3.0878E+05  0.000E+00  0.000E+00  0.000E+00  3.60135E+01  2.357E-01  2.000E+01  2.000E+04 -7.646E-02
   1   15   25     3     4    3.0878E+05 -1.5790E+03   3.1036E+05  0.000E+00  0.000E+00  0.000E+00  3.51253E+01  2.365E-01  2.000E+01  2.000E+04 -7.895E-02
   1   15   26     3     5    3.1036E+05 -1.8825E+03   3.1224E+05  0.000E+00  0.000E+00  0.000E+00  3.42372E+01  2.372E-01  2.000E+01  2.000E+04 -9.412E-02
   1   16   27     3     6    3.1224E+05 -2.1646E+03   3.1440E+05  0.000E+00  0.000E+00  0.000E+00  3.33493E+01  2.382E-01  2.000E+01  2.000E+04 -1.082E-01
   1   17   28     3     7    3.1440E+05 -6.5795E+03   3.2098E+05  0.000E+00  0.000E+00  0.000E+00  3.24624E+01  2.402E-01  2.000E+01  2.000E+04 -3.290E-01
   1   18   29     3     8    3.2098E+05 -7.9952E+03   3.2898E+05  0.000E+00  0.000E+00  0.000E+00  3.15768E+01  2.435E-01  2.000E+01  2.000E+04 -3.998E-01
   1   18   30     3     9    3.2898E+05 -7.1750E+03   3.3615E+05  0.000E+00  0.000E+00  0.000E+00  3.06913E+01  2.468E-01  2.000E+01  2.000E+04 -3.588E-01



1
              HEAD IN LAYER   1 AT END OF TIME STEP   1 IN STRESS PERIOD    1
  ---------------------------------------------------------------------------

          1      2      3      4      5      6      7      8      9     10
         11     12     13     14     15     16     17     18     19     20
         21     22     23     24     25     26     27     28     29     30
 .........................................................................
   1  ****** ****** ****** ****** ****** ****** ****** ****** ****** ******
      ****** ****** ****** ****** ****** ****** ****** ****** ****** ******
      ****** ****** ****** ****** ****** ****** ****** ****** ****** ******
   2  ****** ****** ****** ****** ****** ****** ****** ****** ****** ******
      ****** ****** ****** ****** ****** ****** ****** ****** ****** ******
      ****** ****** ****** ****** ****** ****** ****** ****** ****** ******
   3  ****** ****** ****** ****** ****** ****** ****** ****** ****** ******
      ****** ****** ****** ****** ****** ****** ****** ****** ****** ******
      ****** ****** ****** ****** ****** ****** ****** ****** ****** ******
   4  ****** ****** ****** ****** ****** ****** ****** ****** ****** ******
      ****** ****** ****** ****** ****** ****** ****** ****** ****** ******
      ****** ****** ****** ****** ****** ****** ****** ****** ****** ******
   5  ****** ****** ****** ****** ****** ****** ****** ****** ****** ******
      ****** ****** ****** ****** ****** ****** ****** ****** ****** ******
      ****** ****** ****** ****** ****** ****** ****** ****** ****** ******
   6  ****** ****** ****** ****** ****** ****** ****** ****** ****** ******
      ****** ****** ****** ****** ****** ****** ****** ****** ****** ******
      ****** ****** ****** ****** ****** ****** ****** ****** ****** ******
   7  ****** ****** ****** ****** ****** ****** ****** ****** ****** ******
      ****** ****** ****** ****** ****** ****** ****** ****** ****** ******
      ****** ****** ****** ****** ****** ****** ****** ****** ****** ******
   8  ****** ****** ****** ****** ****** ****** ****** ****** ****** ******
      ****** ****** ****** ****** ****** ****** ****** ****** ****** ******
      ****** ****** ****** ****** ****** ****** ****** ****** ****** ******
   9  ****** ****** ****** ****** ****** ****** ****** ****** ****** ******
      ****** ****** ****** ****** ****** ****** ****** ****** ****** ******
      ****** ****** ****** ****** ****** ****** ****** ****** ****** ******
  10  ****** ****** ****** ****** ****** ****** ****** ****** ****** ******
      ****** ****** ****** ****** ****** ****** ****** ****** ****** ******
      ****** ****** ****** ****** ****** ****** ****** ****** ****** ******
  11  ****** ****** ****** ****** ****** ****** ****** ****** ****** ******
      ****** ****** ****** ****** ****** ****** ****** ****** ****** ******
      ****** ****** ****** ****** ****** ****** ****** ****** ****** ******
  12  ****** ****** ****** ****** ****** ****** ****** ****** ****** ******
      ****** ****** ****** ****** ****** ****** ****** ****** ****** ******
      ****** ****** ****** ****** ****** ****** ****** ****** ****** ******
  13  ****** ****** ****** ****** ****** ****** ****** ****** ****** ******
      ****** ****** ****** ****** ****** ****** ****** ****** ****** ******
      ****** ****** ****** ****** ****** ****** ****** ****** ****** ******
  14  ****** ****** ****** ****** ****** ****** ****** ****** ****** ******
      ****** ****** ****** ****** ****** ****** ****** ****** ****** ******
      ****** ****** ****** ****** ****** ****** ****** ****** ****** ******
  15  ****** ****** ****** ****** ****** ****** ****** ****** ****** ******
      ****** ****** ****** ****** ****** ****** ****** ****** ****** ******
      ****** ****** ****** ****** ****** ****** ****** ****** ****** ******
  16  ****** ****** ****** ****** ****** ****** ****** ****** ****** ******
      ****** ****** ****** ****** ****** ****** ****** ****** ****** ******
      ****** ****** ****** ****** ****** ****** ****** ****** ****** ******
  17  ****** ****** ****** ****** ****** ****** ****** ****** ****** ******
      ****** ****** ****** ****** ****** ****** ****** ****** ****** ******
      ****** ****** ****** ****** ****** ****** ****** ****** ****** ******
  18  ****** ****** ****** ****** ****** ****** ****** ****** ****** ******
      ****** ****** ****** ****** ****** ****** ****** ****** ****** ******
      ****** ****** ****** ****** ****** ****** ****** ****** ****** ******
  19  ****** ****** ****** ****** ****** ****** ****** ****** ****** ******
      ****** ****** ****** ****** ****** ****** ****** ****** ****** ******
      ****** ****** ****** ****** ****** ****** ****** ****** ****** ******
  20  ****** ****** ****** ****** ****** ****** ****** ****** ****** ******
      ****** ****** ****** ****** ****** ****** ****** ****** ****** ******
      ****** ****** ****** ****** ****** ****** ****** ****** ****** ******
  21  ****** ****** ****** ****** ****** ****** ****** ****** ****** ******
      ****** ****** ****** ****** ****** ****** ****** ****** ****** ******
      ****** ****** ****** ****** ****** ****** ****** ****** ****** ******
  22  ****** ****** ****** ****** ****** ****** ****** ****** ****** ******
      ****** ****** ****** ****** ****** ****** ****** ****** ****** ******
      ****** ****** ****** ****** ****** ****** ****** ****** ****** ******
  23  ****** ****** ****** ****** ****** ****** ****** ****** ****** ******
      ****** ****** ****** ****** ****** ****** ****** ****** ****** ******
      ****** ****** ****** ****** ****** ****** ****** ****** ****** ******
  24  ****** ****** ****** ****** ****** ****** ****** ****** ****** ******
      ****** ****** ****** ****** ****** ****** ****** ****** ****** ******
      ****** ****** ****** ****** ****** ****** ****** ****** ****** ******
  25  ****** ****** ****** ****** ****** ****** ****** ****** ****** ******
      ****** ****** ****** ****** ****** ****** ****** ****** ****** ******
      ****** ****** ****** ****** ****** ****** ****** ****** ****** ******

 HEAD WILL BE SAVED ON UNIT   51 AT END OF TIME STEP    1, STRESS PERIOD    1
1
  VOLUMETRIC BUDGET FOR ENTIRE MODEL AT END OF TIME STEP    1, STRESS PERIOD   1
  ------------------------------------------------------------------------------

     CUMULATIVE VOLUMES      L**3       RATES FOR THIS TIME STEP      L**3/T
     ------------------                 ------------------------

           IN:                                      IN:
           ---                                      ---
             STORAGE =    18242506.6642               STORAGE =      198288.1159
       CONSTANT HEAD =     1202560.5636         CONSTANT HEAD =       13071.3105
               WELLS =           0.0000                 WELLS =           0.0000
            RECHARGE =     1269600.0000              RECHARGE =       13800.0000
      STREAM LEAKAGE =      441598.0485        STREAM LEAKAGE =        4799.9788

            TOTAL IN =    21156265.2762              TOTAL IN =      229959.4052

          OUT:                                     OUT:
          ----                                     ----
             STORAGE =           0.0000               STORAGE =           0.0000
       CONSTANT HEAD =           0.0000         CONSTANT HEAD =           0.0000
               WELLS =     3588594.1376                 WELLS =       39006.4580
            RECHARGE =           0.0000              RECHARGE =           0.0000
      STREAM LEAKAGE =    17567671.4285        STREAM LEAKAGE =      190952.9503

           TOTAL OUT =    21156265.5661             TOTAL OUT =      229959.4083

            IN - OUT =          -0.2898              IN - OUT =      -3.1504E-03

 PERCENT DISCREPANCY =          -0.00     PERCENT DISCREPANCY =          -0.00






         TIME SUMMARY AT END OF TIME STEP    1 IN STRESS PERIOD    1
                    SECONDS     MINUTES      HOURS       DAYS        YEARS
                    -----------------------------------------------------------
   TIME STEP LENGTH 7.94880E+06 1.32480E+05  2208.0      92.000     0.25188    
 STRESS PERIOD TIME 7.94880E+06 1.32480E+05  2208.0      92.000     0.25188    
         TOTAL TIME 7.94880E+06 1.32480E+05  2208.0      92.000     0.25188    
1
1
                            STRESS PERIOD NO.    2, LENGTH =   91.00000    
                            -----------------------------------------------

                              NUMBER OF TIME STEPS =     1

                               MULTIPLIER FOR DELT =     1.500

                            INITIAL TIME STEP SIZE =   91.00000    

 WELL NO.  LAYER   ROW   COL   STRESS RATE         
 --------------------------------------------------
      1      1     12     22      -9012.    
      2      1     10     16      -9566.    
      3      1      6     24      -8299.    
      4      1      6     17     -0.1213E+05

      4 WELLS

                 RECHARGE =  2.000000E-03

 REUSING STREAM SEGMENT DATA FROM LAST STRESS PERIOD
 
 SOLVING FOR HEAD 


     7 CALLS TO PCG ROUTINE FOR TIME STEP   1 IN STRESS PERIOD    2
    27 TOTAL ITERATIONS

 OUTPUT CONTROL FOR STRESS PERIOD    2   TIME STEP    1
    SAVE BUDGET
    SAVE HEAD FOR ALL LAYERS
    PRINT HEAD FOR ALL LAYERS
 UBDSV2 SAVING "STREAMFLOW OUT  " ON UNIT  50 AT TIME STEP  1, STRESS PERIOD   2



 STREAM LISTING     PERIOD      2   STEP        1

 LAYER ROW COL. STREAM  RCH.  FLOW INTO     FLOW TO   FLOW OUT OF   OVRLND.     DIRECT     STREAM       STREAM     STREAM     STREAM   STREAMBED  STREAMBED
                SEG.NO.  NO.  STRM. RCH.    AQUIFER    STRM. RCH.    RUNOFF     PRECIP       ET          HEAD       DEPTH      WIDTH   CONDCTNC.   GRADIENT

   1   13    1     1     1    1.0000E+05 -3.9571E+03   1.0396E+05  0.000E+00  0.000E+00  0.000E+00  4.84077E+01  1.464E-01  2.000E+01  2.000E+04 -1.979E-01
   1   13    2     1     2    1.0396E+05 -5.2160E+03   1.0917E+05  0.000E+00  0.000E+00  0.000E+00  4.79344E+01  1.503E-01  2.000E+01  2.000E+04 -2.608E-01
   1   14    3     1     3    1.0917E+05 -1.1131E+03   1.1029E+05  0.000E+00  0.000E+00  0.000E+00  4.74598E+01  1.529E-01  2.000E+01  2.000E+04 -5.566E-02
   1   15    4     1     4    1.1029E+05 -1.1425E+03   1.1143E+05  0.000E+00  0.000E+00  0.000E+00  4.69834E+01  1.539E-01  2.000E+01  2.000E+04 -5.712E-02
   1   16    5     1     5    1.1143E+05 -4.2587E+03   1.1569E+05  0.000E+00  0.000E+00  0.000E+00  4.65084E+01  1.561E-01  2.000E+01  2.000E+04 -2.129E-01
   1   16    6     1     6    1.1569E+05 -2.5102E+03   1.1820E+05  0.000E+00  0.000E+00  0.000E+00  4.60339E+01  1.589E-01  2.000E+01  2.000E+04 -1.255E-01
   1   16    7     1     7    1.1820E+05 -2.4159E+03   1.2061E+05  0.000E+00  0.000E+00  0.000E+00  4.55586E+01  1.609E-01  2.000E+01  2.000E+04 -1.208E-01
   1   16    8     1     8    1.2061E+05 -2.3865E+03   1.2300E+05  0.000E+00  0.000E+00  0.000E+00  4.50833E+01  1.628E-01  2.000E+01  2.000E+04 -1.193E-01
   1   16    9     1     9    1.2300E+05 -2.3653E+03   1.2537E+05  0.000E+00  0.000E+00  0.000E+00  4.46079E+01  1.647E-01  2.000E+01  2.000E+04 -1.183E-01
   1   16   10     1    10    1.2537E+05 -2.3400E+03   1.2771E+05  0.000E+00  0.000E+00  0.000E+00  4.41325E+01  1.666E-01  2.000E+01  2.000E+04 -1.170E-01
   1   16   11     1    11    1.2771E+05 -2.3435E+03   1.3005E+05  0.000E+00  0.000E+00  0.000E+00  4.36571E+01  1.684E-01  2.000E+01  2.000E+04 -1.172E-01
   1   16   12     1    12    1.3005E+05 -4.0566E+03   1.3411E+05  0.000E+00  0.000E+00  0.000E+00  4.31823E+01  1.709E-01  2.000E+01  2.000E+04 -2.028E-01
   1   15   13     1    13    1.3411E+05 -3.8050E+03   1.3791E+05  0.000E+00  0.000E+00  0.000E+00  4.27081E+01  1.740E-01  2.000E+01  2.000E+04 -1.902E-01
   1   14   14     1    14    1.3791E+05 -3.8812E+03   1.4179E+05  0.000E+00  0.000E+00  0.000E+00  4.22337E+01  1.769E-01  2.000E+01  2.000E+04 -1.941E-01
   1   13   15     1    15    1.4179E+05 -3.6326E+03   1.4542E+05  0.000E+00  0.000E+00  0.000E+00  4.17593E+01  1.797E-01  2.000E+01  2.000E+04 -1.816E-01
   1   12   16     1    16    1.4542E+05 -2.4710E+03   1.4790E+05  0.000E+00  0.000E+00  0.000E+00  4.12843E+01  1.820E-01  2.000E+01  2.000E+04 -1.235E-01
   1   12   17     1    17    1.4790E+05 -1.8544E+03   1.4975E+05  0.000E+00  0.000E+00  0.000E+00  4.08086E+01  1.836E-01  2.000E+01  2.000E+04 -9.272E-02
   1   12   18     1    18    1.4975E+05 -2.0832E+03   1.5183E+05  0.000E+00  0.000E+00  0.000E+00  4.03328E+01  1.851E-01  2.000E+01  2.000E+04 -1.042E-01
   1   12   19     1    19    1.5183E+05 -2.2853E+03   1.5412E+05  0.000E+00  0.000E+00  0.000E+00  3.98571E+01  1.867E-01  2.000E+01  2.000E+04 -1.143E-01
   1   13   20     1    20    1.5412E+05 -1.9007E+03   1.5602E+05  0.000E+00  0.000E+00  0.000E+00  3.93814E+01  1.882E-01  2.000E+01  2.000E+04 -9.503E-02
   1   14   21     1    21    1.5602E+05 -2.8233E+03   1.5884E+05  0.000E+00  0.000E+00  0.000E+00  3.89058E+01  1.899E-01  2.000E+01  2.000E+04 -1.412E-01
   1   14   22     1    22    1.5884E+05  4.9722E+03   1.5387E+05  0.000E+00  0.000E+00  0.000E+00  3.84278E+01  1.891E-01  2.000E+01  2.000E+04  2.486E-01
   1    9   30     2     1    5.0000E+04 -1.7279E+03   5.1728E+04  0.000E+00  0.000E+00  0.000E+00  4.02421E+01  1.171E-01  2.000E+01  2.000E+04 -8.639E-02
   1    9   29     2     2    5.1728E+04 -1.9751E+03   5.3703E+04  0.000E+00  0.000E+00  0.000E+00  3.99946E+01  1.196E-01  2.000E+01  2.000E+04 -9.876E-02
   1    9   28     2     3    5.3703E+04 -2.1198E+03   5.5823E+04  0.000E+00  0.000E+00  0.000E+00  3.97474E+01  1.224E-01  2.000E+01  2.000E+04 -1.060E-01
   1    9   27     2     4    5.5823E+04 -3.3060E+03   5.9129E+04  0.000E+00  0.000E+00  0.000E+00  3.95010E+01  1.260E-01  2.000E+01  2.000E+04 -1.653E-01
   1   10   26     2     5    5.9129E+04 -2.3724E+03   6.1501E+04  0.000E+00  0.000E+00  0.000E+00  3.92547E+01  1.297E-01  2.000E+01  2.000E+04 -1.186E-01
   1   11   25     2     6    6.1501E+04 -1.8618E+03   6.3363E+04  0.000E+00  0.000E+00  0.000E+00  3.90074E+01  1.324E-01  2.000E+01  2.000E+04 -9.309E-02
   1   12   24     2     7    6.3363E+04 -5.2639E+02   6.3889E+04  0.000E+00  0.000E+00  0.000E+00  3.87589E+01  1.339E-01  2.000E+01  2.000E+04 -2.632E-02
   1   13   23     2     8    6.3889E+04  5.6313E+01   6.3833E+04  0.000E+00  0.000E+00  0.000E+00  3.85092E+01  1.342E-01  2.000E+01  2.000E+04  2.816E-03
   1   14   22     2     9    6.3833E+04  1.5796E+03   6.2253E+04  0.000E+00  0.000E+00  0.000E+00  3.82582E+01  1.332E-01  2.000E+01  2.000E+04  7.898E-02
   1   14   22     3     1    2.1612E+05 -8.6149E+03   2.2474E+05  0.000E+00  0.000E+00  0.000E+00  3.77484E+01  1.929E-01  2.000E+01  2.000E+04 -4.307E-01
   1   15   23     3     2    2.2474E+05 -1.0523E+03   2.2579E+05  0.000E+00  0.000E+00  0.000E+00  3.68621E+01  1.954E-01  2.000E+01  2.000E+04 -5.261E-02
   1   15   24     3     3    2.2579E+05 -6.6431E+02   2.2646E+05  0.000E+00  0.000E+00  0.000E+00  3.59736E+01  1.958E-01  2.000E+01  2.000E+04 -3.322E-02
   1   15   25     3     4    2.2646E+05 -6.7055E+02   2.2713E+05  0.000E+00  0.000E+00  0.000E+00  3.50851E+01  1.962E-01  2.000E+01  2.000E+04 -3.353E-02
   1   15   26     3     5    2.2713E+05 -7.7212E+02   2.2790E+05  0.000E+00  0.000E+00  0.000E+00  3.41966E+01  1.966E-01  2.000E+01  2.000E+04 -3.861E-02
   1   16   27     3     6    2.2790E+05 -8.9844E+02   2.2880E+05  0.000E+00  0.000E+00  0.000E+00  3.33081E+01  1.970E-01  2.000E+01  2.000E+04 -4.492E-02
   1   17   28     3     7    2.2880E+05 -3.2574E+03   2.3205E+05  0.000E+00  0.000E+00  0.000E+00  3.24203E+01  1.981E-01  2.000E+01  2.000E+04 -1.629E-01
   1   18   29     3     8    2.3205E+05 -5.0582E+03   2.3711E+05  0.000E+00  0.000E+00  0.000E+00  3.15335E+01  2.002E-01  2.000E+01  2.000E+04 -2.529E-01
   1   18   30     3     9    2.3711E+05 -4.6856E+03   2.4180E+05  0.000E+00  0.000E+00  0.000E+00  3.06471E+01  2.027E-01  2.000E+01  2.000E+04 -2.343E-01



1
              HEAD IN LAYER   1 AT END OF TIME STEP   1 IN STRESS PERIOD    2
  ---------------------------------------------------------------------------

          1      2      3      4      5      6      7      8      9     10
         11     12     13     14     15     16     17     18     19     20
         21     22     23     24     25     26     27     28     29     30
 .........................................................................
   1  ****** ****** ****** ****** ****** ****** ****** ****** ****** ******
      ****** ****** ****** ****** ****** ****** ****** ****** ****** ******
      ****** ****** ****** ****** ****** ****** ****** ****** ****** ******
   2  ****** ****** ****** ****** ****** ****** ****** ****** ****** ******
      ****** ****** ****** ****** ****** ****** ****** ****** ****** ******
      ****** ****** ****** ****** ****** ****** ****** ****** ****** ******
   3  ****** ****** ****** ****** ****** ****** ****** ****** ****** ******
      ****** ****** ****** ****** ****** ****** ****** ****** ****** ******
      ****** ****** ****** ****** ****** ****** ****** ****** ****** ******
   4  ****** ****** ****** ****** ****** ****** ****** ****** ****** ******
      ****** ****** ****** ****** ****** ****** ****** ****** ****** ******
      ****** ****** ****** ****** ****** ****** ****** ****** ****** ******
   5  ****** ****** ****** ****** ****** ****** ****** ****** ****** ******
      ****** ****** ****** ****** ****** ****** ****** ****** ****** ******
      ****** ****** ****** ****** ****** ****** ****** ****** ****** ******
   6  ****** ****** ****** ****** ****** ****** ****** ****** ****** ******
      ****** ****** ****** ****** ****** ****** ****** ****** ****** ******
      ****** ****** ****** ****** ****** ****** ****** ****** ****** ******
   7  ****** ****** ****** ****** ****** ****** ****** ****** ****** ******
      ****** ****** ****** ****** ****** ****** ****** ****** ****** ******
      ****** ****** ****** ****** ****** ****** ****** ****** ****** ******
   8  ****** ****** ****** ****** ****** ****** ****** ****** ****** ******
      ****** ****** ****** ****** ****** ****** ****** ****** ****** ******
      ****** ****** ****** ****** ****** ****** ****** ****** ****** ******
   9  ****** ****** ****** ****** ****** ****** ****** ****** ****** ******
      ****** ****** ****** ****** ****** ****** ****** ****** ****** ******
      ****** ****** ****** ****** ****** ****** ****** ****** ****** ******
  10  ****** ****** ****** ****** ****** ****** ****** ****** ****** ******
      ****** ****** ****** ****** ****** ****** ****** ****** ****** ******
      ****** ****** ****** ****** ****** ****** ****** ****** ****** ******
  11  ****** ****** ****** ****** ****** ****** ****** ****** ****** ******
      ****** ****** ****** ****** ****** ****** ****** ****** ****** ******
      ****** ****** ****** ****** ****** ****** ****** ****** ****** ******
  12  ****** ****** ****** ****** ****** ****** ****** ****** ****** ******
      ****** ****** ****** ****** ****** ****** ****** ****** ****** ******
      ****** ****** ****** ****** ****** ****** ****** ****** ****** ******
  13  ****** ****** ****** ****** ****** ****** ****** ****** ****** ******
      ****** ****** ****** ****** ****** ****** ****** ****** ****** ******
      ****** ****** ****** ****** ****** ****** ****** ****** ****** ******
  14  ****** ****** ****** ****** ****** ****** ****** ****** ****** ******
      ****** ****** ****** ****** ****** ****** ****** ****** ****** ******
      ****** ****** ****** ****** ****** ****** ****** ****** ****** ******
  15  ****** ****** ****** ****** ****** ****** ****** ****** ****** ******
      ****** ****** ****** ****** ****** ****** ****** ****** ****** ******
      ****** ****** ****** ****** ****** ****** ****** ****** ****** ******
  16  ****** ****** ****** ****** ****** ****** ****** ****** ****** ******
      ****** ****** ****** ****** ****** ****** ****** ****** ****** ******
      ****** ****** ****** ****** ****** ****** ****** ****** ****** ******
  17  ****** ****** ****** ****** ****** ****** ****** ****** ****** ******
      ****** ****** ****** ****** ****** ****** ****** ****** ****** ******
      ****** ****** ****** ****** ****** ****** ****** ****** ****** ******
  18  ****** ****** ****** ****** ****** ****** ****** ****** ****** ******
      ****** ****** ****** ****** ****** ****** ****** ****** ****** ******
      ****** ****** ****** ****** ****** ****** ****** ****** ****** ******
  19  ****** ****** ****** ****** ****** ****** ****** ****** ****** ******
      ****** ****** ****** ****** ****** ****** ****** ****** ****** ******
      ****** ****** ****** ****** ****** ****** ****** ****** ****** ******
  20  ****** ****** ****** ****** ****** ****** ****** ****** ****** ******
      ****** ****** ****** ****** ****** ****** ****** ****** ****** ******
      ****** ****** ****** ****** ****** ****** ****** ****** ****** ******
  21  ****** ****** ****** ****** ****** ****** ****** ****** ****** ******
      ****** ****** ****** ****** ****** ****** ****** ****** ****** ******
      ****** ****** ****** ****** ****** ****** ****** ****** ****** ******
  22  ****** ****** ****** ****** ****** ****** ****** ****** ****** ******
      ****** ****** ****** ****** ****** ****** ****** ****** ****** ******
      ****** ****** ****** ****** ****** ****** ****** ****** ****** ******
  23  ****** ****** ****** ****** ****** ****** ****** ****** ****** ******
      ****** ****** ****** ****** ****** ****** ****** ****** ****** ******
      ****** ****** ****** ****** ****** ****** ****** ****** ****** ******
  24  ****** ****** ****** ****** ****** ****** ****** ****** ****** ******
      ****** ****** ****** ****** ****** ****** ****** ****** ****** ******
      ****** ****** ****** ****** ****** ****** ****** ****** ****** ******
  25  ****** ****** ****** ****** ****** ****** ****** ****** ****** ******
      ****** ****** ****** ****** ****** ****** ****** ****** ****** ******
      ****** ****** ****** ****** ****** ****** ****** ****** ****** ******

 HEAD WILL BE SAVED ON UNIT   51 AT END OF TIME STEP    1, STRESS PERIOD    2
1
  VOLUMETRIC BUDGET FOR ENTIRE MODEL AT END OF TIME STEP    1, STRESS PERIOD   2
  ------------------------------------------------------------------------------

     CUMULATIVE VOLUMES      L**3       RATES FOR THIS TIME STEP      L**3/T
     ------------------                 ------------------------

           IN:                                      IN:
           ---                                      ---
             STORAGE =    23475674.9502               STORAGE =       57507.3438
       CONSTANT HEAD =     2849331.0089         CONSTANT HEAD =       18096.3785
               WELLS =           0.0000                 WELLS =           0.0000
            RECHARGE =     6292800.0000              RECHARGE =       55200.0000
      STREAM LEAKAGE =     1042937.5950        STREAM LEAKAGE =        6608.1269

            TOTAL IN =    33660743.5541              TOTAL IN =      137411.8492

          OUT:                                     OUT:
          ----                                     ----
             STORAGE =           0.0000               STORAGE =           0.0000
       CONSTANT HEAD =           0.0000         CONSTANT HEAD =           0.0000
               WELLS =     7138181.8171                 WELLS =       39006.4580
            RECHARGE =           0.0000              RECHARGE =           0.0000
      STREAM LEAKAGE =    26522562.9881        STREAM LEAKAGE =       98405.4018

           TOTAL OUT =    33660744.8052             TOTAL OUT =      137411.8598

            IN - OUT =          -1.2512              IN - OUT =      -1.0564E-02

 PERCENT DISCREPANCY =          -0.00     PERCENT DISCREPANCY =          -0.00






         TIME SUMMARY AT END OF TIME STEP    1 IN STRESS PERIOD    2
                    SECONDS     MINUTES      HOURS       DAYS        YEARS
                    -----------------------------------------------------------
   TIME STEP LENGTH 7.86240E+06 1.31040E+05  2184.0      91.000     0.24914    
 STRESS PERIOD TIME 7.86240E+06 1.31040E+05  2184.0      91.000     0.24914    
         TOTAL TIME 1.58112E+07 2.63520E+05  4392.0      183.00     0.50103    
1
1
                            STRESS PERIOD NO.    3, LENGTH =   91.00000    
                            -----------------------------------------------

                              NUMBER OF TIME STEPS =     1

                               MULTIPLIER FOR DELT =     1.500

                            INITIAL TIME STEP SIZE =   91.00000    

 WELL NO.  LAYER   ROW   COL   STRESS RATE         
 --------------------------------------------------
      1      1     12     22      -9012.    
      2      1     10     16      -9566.    
      3      1      6     24      -8299.    
      4      1      6     17     -0.1213E+05

      4 WELLS

                 RECHARGE =   0.00000    

 REUSING STREAM SEGMENT DATA FROM LAST STRESS PERIOD
 
 SOLVING FOR HEAD 


     7 CALLS TO PCG ROUTINE FOR TIME STEP   1 IN STRESS PERIOD    3
    27 TOTAL ITERATIONS

 OUTPUT CONTROL FOR STRESS PERIOD    3   TIME STEP    1
    SAVE BUDGET
    SAVE HEAD FOR ALL LAYERS
    PRINT HEAD FOR ALL LAYERS
 UBDSV2 SAVING "STREAMFLOW OUT  " ON UNIT  50 AT TIME STEP  1, STRESS PERIOD   3



 STREAM LISTING     PERIOD      3   STEP        1

 LAYER ROW COL. STREAM  RCH.  FLOW INTO     FLOW TO   FLOW OUT OF   OVRLND.     DIRECT     STREAM       STREAM     STREAM     STREAM   STREAMBED  STREAMBED
                SEG.NO.  NO.  STRM. RCH.    AQUIFER    STRM. RCH.    RUNOFF     PRECIP       ET          HEAD       DEPTH      WIDTH   CONDCTNC.   GRADIENT

   1   13    1     1     1    1.0000E+05 -2.6712E+03   1.0267E+05  0.000E+00  0.000E+00  0.000E+00  4.84072E+01  1.458E-01  2.000E+01  2.000E+04 -1.336E-01
   1   13    2     1     2    1.0267E+05 -3.7732E+03   1.0644E+05  0.000E+00  0.000E+00  0.000E+00  4.79327E+01  1.486E-01  2.000E+01  2.000E+04 -1.887E-01
   1   14    3     1     3    1.0644E+05 -6.4944E+02   1.0709E+05  0.000E+00  0.000E+00  0.000E+00  4.74573E+01  1.504E-01  2.000E+01  2.000E+04 -3.247E-02
   1   15    4     1     4    1.0709E+05 -6.3585E+02   1.0773E+05  0.000E+00  0.000E+00  0.000E+00  4.69805E+01  1.510E-01  2.000E+01  2.000E+04 -3.179E-02
   1   16    5     1     5    1.0773E+05 -2.4688E+03   1.1020E+05  0.000E+00  0.000E+00  0.000E+00  4.65046E+01  1.523E-01  2.000E+01  2.000E+04 -1.234E-01
   1   16    6     1     6    1.1020E+05 -1.5090E+03   1.1171E+05  0.000E+00  0.000E+00  0.000E+00  4.60290E+01  1.540E-01  2.000E+01  2.000E+04 -7.545E-02
   1   16    7     1     7    1.1171E+05 -1.4723E+03   1.1318E+05  0.000E+00  0.000E+00  0.000E+00  4.55529E+01  1.552E-01  2.000E+01  2.000E+04 -7.362E-02
   1   16    8     1     8    1.1318E+05 -1.4608E+03   1.1464E+05  0.000E+00  0.000E+00  0.000E+00  4.50769E+01  1.564E-01  2.000E+01  2.000E+04 -7.304E-02
   1   16    9     1     9    1.1464E+05 -1.4440E+03   1.1608E+05  0.000E+00  0.000E+00  0.000E+00  4.46008E+01  1.576E-01  2.000E+01  2.000E+04 -7.220E-02
   1   16   10     1    10    1.1608E+05 -1.4195E+03   1.1750E+05  0.000E+00  0.000E+00  0.000E+00  4.41247E+01  1.588E-01  2.000E+01  2.000E+04 -7.098E-02
   1   16   11     1    11    1.1750E+05 -1.4185E+03   1.1892E+05  0.000E+00  0.000E+00  0.000E+00  4.36486E+01  1.599E-01  2.000E+01  2.000E+04 -7.093E-02
   1   16   12     1    12    1.1892E+05 -2.4394E+03   1.2136E+05  0.000E+00  0.000E+00  0.000E+00  4.31729E+01  1.615E-01  2.000E+01  2.000E+04 -1.220E-01
   1   15   13     1    13    1.2136E+05 -2.1013E+03   1.2346E+05  0.000E+00  0.000E+00  0.000E+00  4.26974E+01  1.633E-01  2.000E+01  2.000E+04 -1.051E-01
   1   14   14     1    14    1.2346E+05 -2.0856E+03   1.2555E+05  0.000E+00  0.000E+00  0.000E+00  4.22218E+01  1.650E-01  2.000E+01  2.000E+04 -1.043E-01
   1   13   15     1    15    1.2555E+05 -1.7784E+03   1.2733E+05  0.000E+00  0.000E+00  0.000E+00  4.17461E+01  1.665E-01  2.000E+01  2.000E+04 -8.892E-02
   1   12   16     1    16    1.2733E+05 -4.3994E+02   1.2777E+05  0.000E+00  0.000E+00  0.000E+00  4.12697E+01  1.674E-01  2.000E+01  2.000E+04 -2.200E-02
   1   12   17     1    17    1.2777E+05 -4.1506E+02   1.2818E+05  0.000E+00  0.000E+00  0.000E+00  4.07927E+01  1.677E-01  2.000E+01  2.000E+04 -2.075E-02
   1   12   18     1    18    1.2818E+05 -6.6910E+02   1.2885E+05  0.000E+00  0.000E+00  0.000E+00  4.03159E+01  1.682E-01  2.000E+01  2.000E+04 -3.345E-02
   1   12   19     1    19    1.2885E+05 -4.7944E+02   1.2933E+05  0.000E+00  0.000E+00  0.000E+00  3.98391E+01  1.686E-01  2.000E+01  2.000E+04 -2.397E-02
   1   13   20     1    20    1.2933E+05 -3.5583E+02   1.2969E+05  0.000E+00  0.000E+00  0.000E+00  3.93621E+01  1.689E-01  2.000E+01  2.000E+04 -1.779E-02
   1   14   21     1    21    1.2969E+05 -1.3405E+03   1.3103E+05  0.000E+00  0.000E+00  0.000E+00  3.88855E+01  1.696E-01  2.000E+01  2.000E+04 -6.702E-02
   1   14   22     1    22    1.3103E+05  5.3425E+03   1.2568E+05  0.000E+00  0.000E+00  0.000E+00  3.84067E+01  1.680E-01  2.000E+01  2.000E+04  2.671E-01
   1    9   30     2     1    5.0000E+04 -4.4113E+02   5.0441E+04  0.000E+00  0.000E+00  0.000E+00  4.02412E+01  1.162E-01  2.000E+01  2.000E+04 -2.206E-02
   1    9   29     2     2    5.0441E+04 -6.8362E+02   5.1125E+04  0.000E+00  0.000E+00  0.000E+00  3.99920E+01  1.170E-01  2.000E+01  2.000E+04 -3.418E-02
   1    9   28     2     3    5.1125E+04 -7.9822E+02   5.1923E+04  0.000E+00  0.000E+00  0.000E+00  3.97430E+01  1.180E-01  2.000E+01  2.000E+04 -3.991E-02
   1    9   27     2     4    5.1923E+04 -1.3391E+03   5.3262E+04  0.000E+00  0.000E+00  0.000E+00  3.94944E+01  1.194E-01  2.000E+01  2.000E+04 -6.696E-02
   1   10   26     2     5    5.3262E+04 -5.6798E+02   5.3830E+04  0.000E+00  0.000E+00  0.000E+00  3.92457E+01  1.207E-01  2.000E+01  2.000E+04 -2.840E-02
   1   11   25     2     6    5.3830E+04 -1.8664E+02   5.4017E+04  0.000E+00  0.000E+00  0.000E+00  3.89962E+01  1.212E-01  2.000E+01  2.000E+04 -9.332E-03
   1   12   24     2     7    5.4017E+04  9.8232E+02   5.3034E+04  0.000E+00  0.000E+00  0.000E+00  3.87457E+01  1.207E-01  2.000E+01  2.000E+04  4.912E-02
   1   13   23     2     8    5.3034E+04  4.1572E+02   5.2619E+04  0.000E+00  0.000E+00  0.000E+00  3.84948E+01  1.198E-01  2.000E+01  2.000E+04  2.079E-02
   1   14   22     2     9    5.2619E+04  2.0704E+03   5.0548E+04  0.000E+00  0.000E+00  0.000E+00  3.82431E+01  1.181E-01  2.000E+01  2.000E+04  1.035E-01
   1   14   22     3     1    1.7623E+05 -8.2597E+03   1.8449E+05  0.000E+00  0.000E+00  0.000E+00  3.77266E+01  1.710E-01  2.000E+01  2.000E+04 -4.130E-01
   1   15   23     3     2    1.8449E+05 -6.6649E+02   1.8516E+05  0.000E+00  0.000E+00  0.000E+00  3.68402E+01  1.735E-01  2.000E+01  2.000E+04 -3.332E-02
   1   15   24     3     3    1.8516E+05 -3.4423E+02   1.8550E+05  0.000E+00  0.000E+00  0.000E+00  3.59516E+01  1.738E-01  2.000E+01  2.000E+04 -1.721E-02
   1   15   25     3     4    1.8550E+05 -3.3328E+02   1.8584E+05  0.000E+00  0.000E+00  0.000E+00  3.50629E+01  1.740E-01  2.000E+01  2.000E+04 -1.666E-02
   1   15   26     3     5    1.8584E+05 -3.6926E+02   1.8621E+05  0.000E+00  0.000E+00  0.000E+00  3.41742E+01  1.742E-01  2.000E+01  2.000E+04 -1.846E-02
   1   16   27     3     6    1.8621E+05 -4.3475E+02   1.8664E+05  0.000E+00  0.000E+00  0.000E+00  3.32855E+01  1.744E-01  2.000E+01  2.000E+04 -2.174E-02
   1   17   28     3     7    1.8664E+05 -1.8519E+03   1.8849E+05  0.000E+00  0.000E+00  0.000E+00  3.23973E+01  1.751E-01  2.000E+01  2.000E+04 -9.259E-02
   1   18   29     3     8    1.8849E+05 -3.5555E+03   1.9205E+05  0.000E+00  0.000E+00  0.000E+00  3.15099E+01  1.766E-01  2.000E+01  2.000E+04 -1.778E-01
   1   18   30     3     9    1.9205E+05 -3.5576E+03   1.9561E+05  0.000E+00  0.000E+00  0.000E+00  3.06230E+01  1.785E-01  2.000E+01  2.000E+04 -1.779E-01



1
              HEAD IN LAYER   1 AT END OF TIME STEP   1 IN STRESS PERIOD    3
  ---------------------------------------------------------------------------

          1      2      3      4      5      6      7      8      9     10
         11     12     13     14     15     16     17     18     19     20
         21     22     23     24     25     26     27     28     29     30
 .........................................................................
   1  ****** ****** ****** ****** ****** ****** ****** ****** ****** ******
      ****** ****** ****** ****** ****** ****** ****** ****** ****** ******
      ****** ****** ****** ****** ****** ****** ****** ****** ****** ******
   2  ****** ****** ****** ****** ****** ****** ****** ****** ****** ******
      ****** ****** ****** ****** ****** ****** ****** ****** ****** ******
      ****** ****** ****** ****** ****** ****** ****** ****** ****** ******
   3  ****** ****** ****** ****** ****** ****** ****** ****** ****** ******
      ****** ****** ****** ****** ****** ****** ****** ****** ****** ******
      ****** ****** ****** ****** ****** ****** ****** ****** ****** ******
   4  ****** ****** ****** ****** ****** ****** ****** ****** ****** ******
      ****** ****** ****** ****** ****** ****** ****** ****** ****** ******
      ****** ****** ****** ****** ****** ****** ****** ****** ****** ******
   5  ****** ****** ****** ****** ****** ****** ****** ****** ****** ******
      ****** ****** ****** ****** ****** ****** ****** ****** ****** ******
      ****** ****** ****** ****** ****** ****** ****** ****** ****** ******
   6  ****** ****** ****** ****** ****** ****** ****** ****** ****** ******
      ****** ****** ****** ****** ****** ****** ****** ****** ****** ******
      ****** ****** ****** ****** ****** ****** ****** ****** ****** ******
   7  ****** ****** ****** ****** ****** ****** ****** ****** ****** ******
      ****** ****** ****** ****** ****** ****** ****** ****** ****** ******
      ****** ****** ****** ****** ****** ****** ****** ****** ****** ******
   8  ****** ****** ****** ****** ****** ****** ****** ****** ****** ******
      ****** ****** ****** ****** ****** ****** ****** ****** ****** ******
      ****** ****** ****** ****** ****** ****** ****** ****** ****** ******
   9  ****** ****** ****** ****** ****** ****** ****** ****** ****** ******
      ****** ****** ****** ****** ****** ****** ****** ****** ****** ******
      ****** ****** ****** ****** ****** ****** ****** ****** ****** ******
  10  ****** ****** ****** ****** ****** ****** ****** ****** ****** ******
      ****** ****** ****** ****** ****** ****** ****** ****** ****** ******
      ****** ****** ****** ****** ****** ****** ****** ****** ****** ******
  11  ****** ****** ****** ****** ****** ****** ****** ****** ****** ******
      ****** ****** ****** ****** ****** ****** ****** ****** ****** ******
      ****** ****** ****** ****** ****** ****** ****** ****** ****** ******
  12  ****** ****** ****** ****** ****** ****** ****** ****** ****** ******
      ****** ****** ****** ****** ****** ****** ****** ****** ****** ******
      ****** ****** ****** ****** ****** ****** ****** ****** ****** ******
  13  ****** ****** ****** ****** ****** ****** ****** ****** ****** ******
      ****** ****** ****** ****** ****** ****** ****** ****** ****** ******
      ****** ****** ****** ****** ****** ****** ****** ****** ****** ******
  14  ****** ****** ****** ****** ****** ****** ****** ****** ****** ******
      ****** ****** ****** ****** ****** ****** ****** ****** ****** ******
      ****** ****** ****** ****** ****** ****** ****** ****** ****** ******
  15  ****** ****** ****** ****** ****** ****** ****** ****** ****** ******
      ****** ****** ****** ****** ****** ****** ****** ****** ****** ******
      ****** ****** ****** ****** ****** ****** ****** ****** ****** ******
  16  ****** ****** ****** ****** ****** ****** ****** ****** ****** ******
      ****** ****** ****** ****** ****** ****** ****** ****** ****** ******
      ****** ****** ****** ****** ****** ****** ****** ****** ****** ******
  17  ****** ****** ****** ****** ****** ****** ****** ****** ****** ******
      ****** ****** ****** ****** ****** ****** ****** ****** ****** ******
      ****** ****** ****** ****** ****** ****** ****** ****** ****** ******
  18  ****** ****** ****** ****** ****** ****** ****** ****** ****** ******
      ****** ****** ****** ****** ****** ****** ****** ****** ****** ******
      ****** ****** ****** ****** ****** ****** ****** ****** ****** ******
  19  ****** ****** ****** ****** ****** ****** ****** ****** ****** ******
      ****** ****** ****** ****** ****** ****** ****** ****** ****** ******
      ****** ****** ****** ****** ****** ****** ****** ****** ****** ******
  20  ****** ****** ****** ****** ****** ****** ****** ****** ****** ******
      ****** ****** ****** ****** ****** ****** ****** ****** ****** ******
      ****** ****** ****** ****** ****** ****** ****** ****** ****** ******
  21  ****** ****** ****** ****** ****** ****** ****** ****** ****** ******
      ****** ****** ****** ****** ****** ****** ****** ****** ****** ******
      ****** ****** ****** ****** ****** ****** ****** ****** ****** ******
  22  ****** ****** ****** ****** ****** ****** ****** ****** ****** ******
      ****** ****** ****** ****** ****** ****** ****** ****** ****** ******
      ****** ****** ****** ****** ****** ****** ****** ****** ****** ******
  23  ****** ****** ****** ****** ****** ****** ****** ****** ****** ******
      ****** ****** ****** ****** ****** ****** ****** ****** ****** ******
      ****** ****** ****** ****** ****** ****** ****** ****** ****** ******
  24  ****** ****** ****** ****** ****** ****** ****** ****** ****** ******
      ****** ****** ****** ****** ****** ****** ****** ****** ****** ******
      ****** ****** ****** ****** ****** ****** ****** ****** ****** ******
  25  ****** ****** ****** ****** ****** ****** ****** ****** ****** ******
      ****** ****** ****** ****** ****** ****** ****** ****** ****** ******
      ****** ****** ****** ****** ****** ****** ****** ****** ****** ******

 HEAD WILL BE SAVED ON UNIT   51 AT END OF TIME STEP    1, STRESS PERIOD    3
1
  VOLUMETRIC BUDGET FOR ENTIRE MODEL AT END OF TIME STEP    1, STRESS PERIOD   3
  ------------------------------------------------------------------------------

     CUMULATIVE VOLUMES      L**3       RATES FOR THIS TIME STEP      L**3/T
     ------------------                 ------------------------

           IN:                                      IN:
           ---                                      ---
             STORAGE =    28716485.8752               STORAGE =       57591.3288
       CONSTANT HEAD =     5308231.1912         CONSTANT HEAD =       27020.8811
               WELLS =           0.0000                 WELLS =           0.0000
            RECHARGE =     6292800.0000              RECHARGE =           0.0000
      STREAM LEAKAGE =     1844731.0844        STREAM LEAKAGE =        8810.9175

            TOTAL IN =    42162248.1507              TOTAL IN =       93423.1274

          OUT:                                     OUT:
          ----                                     ----
             STORAGE =           0.0000               STORAGE =           0.0000
       CONSTANT HEAD =           0.0000         CONSTANT HEAD =           0.0000
               WELLS =    10687769.4967                 WELLS =       39006.4580
            RECHARGE =           0.0000              RECHARGE =           0.0000
      STREAM LEAKAGE =    31474480.6059        STREAM LEAKAGE =       54416.6771

           TOTAL OUT =    42162250.1026             TOTAL OUT =       93423.1351

            IN - OUT =          -1.9519              IN - OUT =      -7.6996E-03

 PERCENT DISCREPANCY =          -0.00     PERCENT DISCREPANCY =          -0.00






         TIME SUMMARY AT END OF TIME STEP    1 IN STRESS PERIOD    3
                    SECONDS     MINUTES      HOURS       DAYS        YEARS
                    -----------------------------------------------------------
   TIME STEP LENGTH 7.86240E+06 1.31040E+05  2184.0      91.000     0.24914    
 STRESS PERIOD TIME 7.86240E+06 1.31040E+05  2184.0      91.000     0.24914    
         TOTAL TIME 2.36736E+07 3.94560E+05  6576.0      274.00     0.75017    
1
1
                            STRESS PERIOD NO.    4, LENGTH =   91.00000    
                            -----------------------------------------------

                              NUMBER OF TIME STEPS =     1

                               MULTIPLIER FOR DELT =     1.500

                            INITIAL TIME STEP SIZE =   91.00000    

 WELL NO.  LAYER   ROW   COL   STRESS RATE         
 --------------------------------------------------
      1      1     12     22      -9012.    
      2      1     10     16      -9566.    
      3      1      6     24      -8299.    
      4      1      6     17     -0.1213E+05

      4 WELLS

                 RECHARGE =  1.000000E-03

 REUSING STREAM SEGMENT DATA FROM LAST STRESS PERIOD
 
 SOLVING FOR HEAD 


     6 CALLS TO PCG ROUTINE FOR TIME STEP   1 IN STRESS PERIOD    4
    23 TOTAL ITERATIONS

 OUTPUT CONTROL FOR STRESS PERIOD    4   TIME STEP    1
    SAVE BUDGET
    SAVE HEAD FOR ALL LAYERS
    PRINT HEAD FOR ALL LAYERS
 UBDSV2 SAVING "STREAMFLOW OUT  " ON UNIT  50 AT TIME STEP  1, STRESS PERIOD   4



 STREAM LISTING     PERIOD      4   STEP        1

 LAYER ROW COL. STREAM  RCH.  FLOW INTO     FLOW TO   FLOW OUT OF   OVRLND.     DIRECT     STREAM       STREAM     STREAM     STREAM   STREAMBED  STREAMBED
                SEG.NO.  NO.  STRM. RCH.    AQUIFER    STRM. RCH.    RUNOFF     PRECIP       ET          HEAD       DEPTH      WIDTH   CONDCTNC.   GRADIENT

   1   13    1     1     1    1.0000E+05 -2.4020E+03   1.0240E+05  0.000E+00  0.000E+00  0.000E+00  4.84071E+01  1.457E-01  2.000E+01  2.000E+04 -1.201E-01
   1   13    2     1     2    1.0240E+05 -3.4620E+03   1.0586E+05  0.000E+00  0.000E+00  0.000E+00  4.79323E+01  1.482E-01  2.000E+01  2.000E+04 -1.731E-01
   1   14    3     1     3    1.0586E+05 -6.1774E+02   1.0648E+05  0.000E+00  0.000E+00  0.000E+00  4.74568E+01  1.499E-01  2.000E+01  2.000E+04 -3.089E-02
   1   15    4     1     4    1.0648E+05 -5.9569E+02   1.0708E+05  0.000E+00  0.000E+00  0.000E+00  4.69800E+01  1.505E-01  2.000E+01  2.000E+04 -2.978E-02
   1   16    5     1     5    1.0708E+05 -2.1720E+03   1.0925E+05  0.000E+00  0.000E+00  0.000E+00  4.65039E+01  1.516E-01  2.000E+01  2.000E+04 -1.086E-01
   1   16    6     1     6    1.0925E+05 -1.3623E+03   1.1061E+05  0.000E+00  0.000E+00  0.000E+00  4.60281E+01  1.531E-01  2.000E+01  2.000E+04 -6.811E-02
   1   16    7     1     7    1.1061E+05 -1.3365E+03   1.1195E+05  0.000E+00  0.000E+00  0.000E+00  4.55520E+01  1.542E-01  2.000E+01  2.000E+04 -6.683E-02
   1   16    8     1     8    1.1195E+05 -1.3293E+03   1.1328E+05  0.000E+00  0.000E+00  0.000E+00  4.50758E+01  1.553E-01  2.000E+01  2.000E+04 -6.646E-02
   1   16    9     1     9    1.1328E+05 -1.3157E+03   1.1459E+05  0.000E+00  0.000E+00  0.000E+00  4.45996E+01  1.564E-01  2.000E+01  2.000E+04 -6.579E-02
   1   16   10     1    10    1.1459E+05 -1.2958E+03   1.1589E+05  0.000E+00  0.000E+00  0.000E+00  4.41234E+01  1.575E-01  2.000E+01  2.000E+04 -6.479E-02
   1   16   11     1    11    1.1589E+05 -1.2971E+03   1.1719E+05  0.000E+00  0.000E+00  0.000E+00  4.36472E+01  1.586E-01  2.000E+01  2.000E+04 -6.485E-02
   1   16   12     1    12    1.1719E+05 -2.1783E+03   1.1936E+05  0.000E+00  0.000E+00  0.000E+00  4.31713E+01  1.600E-01  2.000E+01  2.000E+04 -1.089E-01
   1   15   13     1    13    1.1936E+05 -1.8312E+03   1.2120E+05  0.000E+00  0.000E+00  0.000E+00  4.26957E+01  1.616E-01  2.000E+01  2.000E+04 -9.156E-02
   1   14   14     1    14    1.2120E+05 -1.7694E+03   1.2296E+05  0.000E+00  0.000E+00  0.000E+00  4.22199E+01  1.630E-01  2.000E+01  2.000E+04 -8.847E-02
   1   13   15     1    15    1.2296E+05 -1.4103E+03   1.2438E+05  0.000E+00  0.000E+00  0.000E+00  4.17439E+01  1.643E-01  2.000E+01  2.000E+04 -7.052E-02
   1   12   16     1    16    1.2438E+05  7.9363E+01   1.2430E+05  0.000E+00  0.000E+00  0.000E+00  4.12671E+01  1.648E-01  2.000E+01  2.000E+04  3.968E-03
   1   12   17     1    17    1.2430E+05 -1.0754E+02   1.2440E+05  0.000E+00  0.000E+00  0.000E+00  4.07899E+01  1.649E-01  2.000E+01  2.000E+04 -5.377E-03
   1   12   18     1    18    1.2440E+05 -3.8283E+02   1.2479E+05  0.000E+00  0.000E+00  0.000E+00  4.03128E+01  1.651E-01  2.000E+01  2.000E+04 -1.914E-02
   1   12   19     1    19    1.2479E+05 -1.1027E+02   1.2490E+05  0.000E+00  0.000E+00  0.000E+00  3.98357E+01  1.652E-01  2.000E+01  2.000E+04 -5.513E-03
   1   13   20     1    20    1.2490E+05 -1.4758E+02   1.2504E+05  0.000E+00  0.000E+00  0.000E+00  3.93585E+01  1.654E-01  2.000E+01  2.000E+04 -7.379E-03
   1   14   21     1    21    1.2504E+05 -1.1156E+03   1.2616E+05  0.000E+00  0.000E+00  0.000E+00  3.88818E+01  1.659E-01  2.000E+01  2.000E+04 -5.578E-02
   1   14   22     1    22    1.2616E+05  5.3814E+03   1.2078E+05  0.000E+00  0.000E+00  0.000E+00  3.84028E+01  1.642E-01  2.000E+01  2.000E+04  2.691E-01
   1    9   30     2     1    5.0000E+04 -3.0852E+02   5.0309E+04  0.000E+00  0.000E+00  0.000E+00  4.02411E+01  1.161E-01  2.000E+01  2.000E+04 -1.543E-02
   1    9   29     2     2    5.0309E+04 -5.4113E+02   5.0850E+04  0.000E+00  0.000E+00  0.000E+00  3.99917E+01  1.167E-01  2.000E+01  2.000E+04 -2.706E-02
   1    9   28     2     3    5.0850E+04 -6.2778E+02   5.1477E+04  0.000E+00  0.000E+00  0.000E+00  3.97425E+01  1.175E-01  2.000E+01  2.000E+04 -3.139E-02
   1    9   27     2     4    5.1477E+04 -9.6448E+02   5.2442E+04  0.000E+00  0.000E+00  0.000E+00  3.94936E+01  1.186E-01  2.000E+01  2.000E+04 -4.822E-02
   1   10   26     2     5    5.2442E+04 -3.2851E+02   5.2770E+04  0.000E+00  0.000E+00  0.000E+00  3.92445E+01  1.195E-01  2.000E+01  2.000E+04 -1.643E-02
   1   11   25     2     6    5.2770E+04  3.1605E+00   5.2767E+04  0.000E+00  0.000E+00  0.000E+00  3.89947E+01  1.197E-01  2.000E+01  2.000E+04  1.580E-04
   1   12   24     2     7    5.2767E+04  1.1509E+03   5.1616E+04  0.000E+00  0.000E+00  0.000E+00  3.87439E+01  1.189E-01  2.000E+01  2.000E+04  5.754E-02
   1   13   23     2     8    5.1616E+04  4.0073E+02   5.1216E+04  0.000E+00  0.000E+00  0.000E+00  3.84928E+01  1.178E-01  2.000E+01  2.000E+04  2.004E-02
   1   14   22     2     9    5.1216E+04  2.1468E+03   4.9069E+04  0.000E+00  0.000E+00  0.000E+00  3.82411E+01  1.161E-01  2.000E+01  2.000E+04  1.073E-01
   1   14   22     3     1    1.6985E+05 -8.2169E+03   1.7806E+05  0.000E+00  0.000E+00  0.000E+00  3.77229E+01  1.673E-01  2.000E+01  2.000E+04 -4.108E-01
   1   15   23     3     2    1.7806E+05 -6.4795E+02   1.7871E+05  0.000E+00  0.000E+00  0.000E+00  3.68365E+01  1.699E-01  2.000E+01  2.000E+04 -3.240E-02
   1   15   24     3     3    1.7871E+05 -3.4583E+02   1.7906E+05  0.000E+00  0.000E+00  0.000E+00  3.59479E+01  1.702E-01  2.000E+01  2.000E+04 -1.729E-02
   1   15   25     3     4    1.7906E+05 -3.3429E+02   1.7939E+05  0.000E+00  0.000E+00  0.000E+00  3.50592E+01  1.703E-01  2.000E+01  2.000E+04 -1.671E-02
   1   15   26     3     5    1.7939E+05 -3.7939E+02   1.7977E+05  0.000E+00  0.000E+00  0.000E+00  3.41706E+01  1.706E-01  2.000E+01  2.000E+04 -1.897E-02
   1   16   27     3     6    1.7977E+05 -4.3706E+02   1.8021E+05  0.000E+00  0.000E+00  0.000E+00  3.32819E+01  1.708E-01  2.000E+01  2.000E+04 -2.185E-02
   1   17   28     3     7    1.8021E+05 -1.7956E+03   1.8200E+05  0.000E+00  0.000E+00  0.000E+00  3.23936E+01  1.714E-01  2.000E+01  2.000E+04 -8.978E-02
   1   18   29     3     8    1.8200E+05 -3.3543E+03   1.8536E+05  0.000E+00  0.000E+00  0.000E+00  3.15062E+01  1.729E-01  2.000E+01  2.000E+04 -1.677E-01
   1   18   30     3     9    1.8536E+05 -3.4594E+03   1.8882E+05  0.000E+00  0.000E+00  0.000E+00  3.06192E+01  1.748E-01  2.000E+01  2.000E+04 -1.730E-01



1
              HEAD IN LAYER   1 AT END OF TIME STEP   1 IN STRESS PERIOD    4
  ---------------------------------------------------------------------------

          1      2      3      4      5      6      7      8      9     10
         11     12     13     14     15     16     17     18     19     20
         21     22     23     24     25     26     27     28     29     30
 .........................................................................
   1  ****** ****** ****** ****** ****** ****** ****** ****** ****** ******
      ****** ****** ****** ****** ****** ****** ****** ****** ****** ******
      ****** ****** ****** ****** ****** ****** ****** ****** ****** ******
   2  ****** ****** ****** ****** ****** ****** ****** ****** ****** ******
      ****** ****** ****** ****** ****** ****** ****** ****** ****** ******
      ****** ****** ****** ****** ****** ****** ****** ****** ****** ******
   3  ****** ****** ****** ****** ****** ****** ****** ****** ****** ******
      ****** ****** ****** ****** ****** ****** ****** ****** ****** ******
      ****** ****** ****** ****** ****** ****** ****** ****** ****** ******
   4  ****** ****** ****** ****** ****** ****** ****** ****** ****** ******
      ****** ****** ****** ****** ****** ****** ****** ****** ****** ******
      ****** ****** ****** ****** ****** ****** ****** ****** ****** ******
   5  ****** ****** ****** ****** ****** ****** ****** ****** ****** ******
      ****** ****** ****** ****** ****** ****** ****** ****** ****** ******
      ****** ****** ****** ****** ****** ****** ****** ****** ****** ******
   6  ****** ****** ****** ****** ****** ****** ****** ****** ****** ******
      ****** ****** ****** ****** ****** ****** ****** ****** ****** ******
      ****** ****** ****** ****** ****** ****** ****** ****** ****** ******
   7  ****** ****** ****** ****** ****** ****** ****** ****** ****** ******
      ****** ****** ****** ****** ****** ****** ****** ****** ****** ******
      ****** ****** ****** ****** ****** ****** ****** ****** ****** ******
   8  ****** ****** ****** ****** ****** ****** ****** ****** ****** ******
      ****** ****** ****** ****** ****** ****** ****** ****** ****** ******
      ****** ****** ****** ****** ****** ****** ****** ****** ****** ******
   9  ****** ****** ****** ****** ****** ****** ****** ****** ****** ******
      ****** ****** ****** ****** ****** ****** ****** ****** ****** ******
      ****** ****** ****** ****** ****** ****** ****** ****** ****** ******
  10  ****** ****** ****** ****** ****** ****** ****** ****** ****** ******
      ****** ****** ****** ****** ****** ****** ****** ****** ****** ******
      ****** ****** ****** ****** ****** ****** ****** ****** ****** ******
  11  ****** ****** ****** ****** ****** ****** ****** ****** ****** ******
      ****** ****** ****** ****** ****** ****** ****** ****** ****** ******
      ****** ****** ****** ****** ****** ****** ****** ****** ****** ******
  12  ****** ****** ****** ****** ****** ****** ****** ****** ****** ******
      ****** ****** ****** ****** ****** ****** ****** ****** ****** ******
      ****** ****** ****** ****** ****** ****** ****** ****** ****** ******
  13  ****** ****** ****** ****** ****** ****** ****** ****** ****** ******
      ****** ****** ****** ****** ****** ****** ****** ****** ****** ******
      ****** ****** ****** ****** ****** ****** ****** ****** ****** ******
  14  ****** ****** ****** ****** ****** ****** ****** ****** ****** ******
      ****** ****** ****** ****** ****** ****** ****** ****** ****** ******
      ****** ****** ****** ****** ****** ****** ****** ****** ****** ******
  15  ****** ****** ****** ****** ****** ****** ****** ****** ****** ******
      ****** ****** ****** ****** ****** ****** ****** ****** ****** ******
      ****** ****** ****** ****** ****** ****** ****** ****** ****** ******
  16  ****** ****** ****** ****** ****** ****** ****** ****** ****** ******
      ****** ****** ****** ****** ****** ****** ****** ****** ****** ******
      ****** ****** ****** ****** ****** ****** ****** ****** ****** ******
  17  ****** ****** ****** ****** ****** ****** ****** ****** ****** ******
      ****** ****** ****** ****** ****** ****** ****** ****** ****** ******
      ****** ****** ****** ****** ****** ****** ****** ****** ****** ******
  18  ****** ****** ****** ****** ****** ****** ****** ****** ****** ******
      ****** ****** ****** ****** ****** ****** ****** ****** ****** ******
      ****** ****** ****** ****** ****** ****** ****** ****** ****** ******
  19  ****** ****** ****** ****** ****** ****** ****** ****** ****** ******
      ****** ****** ****** ****** ****** ****** ****** ****** ****** ******
      ****** ****** ****** ****** ****** ****** ****** ****** ****** ******
  20  ****** ****** ****** ****** ****** ****** ****** ****** ****** ******
      ****** ****** ****** ****** ****** ****** ****** ****** ****** ******
      ****** ****** ****** ****** ****** ****** ****** ****** ****** ******
  21  ****** ****** ****** ****** ****** ****** ****** ****** ****** ******
      ****** ****** ****** ****** ****** ****** ****** ****** ****** ******
      ****** ****** ****** ****** ****** ****** ****** ****** ****** ******
  22  ****** ****** ****** ****** ****** ****** ****** ****** ****** ******
      ****** ****** ****** ****** ****** ****** ****** ****** ****** ******
      ****** ****** ****** ****** ****** ****** ****** ****** ****** ******
  23  ****** ****** ****** ****** ****** ****** ****** ****** ****** ******
      ****** ****** ****** ****** ****** ****** ****** ****** ****** ******
      ****** ****** ****** ****** ****** ****** ****** ****** ****** ******
  24  ****** ****** ****** ****** ****** ****** ****** ****** ****** ******
      ****** ****** ****** ****** ****** ****** ****** ****** ****** ******
      ****** ****** ****** ****** ****** ****** ****** ****** ****** ******
  25  ****** ****** ****** ****** ****** ****** ****** ****** ****** ******
      ****** ****** ****** ****** ****** ****** ****** ****** ****** ******
      ****** ****** ****** ****** ****** ****** ****** ****** ****** ******

 HEAD WILL BE SAVED ON UNIT   51 AT END OF TIME STEP    1, STRESS PERIOD    4
1
  VOLUMETRIC BUDGET FOR ENTIRE MODEL AT END OF TIME STEP    1, STRESS PERIOD   4
  ------------------------------------------------------------------------------

     CUMULATIVE VOLUMES      L**3       RATES FOR THIS TIME STEP      L**3/T
     ------------------                 ------------------------

           IN:                                      IN:
           ---                                      ---
             STORAGE =    30568914.3272               STORAGE =       20356.3566
       CONSTANT HEAD =     8027319.8667         CONSTANT HEAD =       29880.0953
               WELLS =           0.0000                 WELLS =           0.0000
            RECHARGE =     8804400.0000              RECHARGE =       27600.0000
      STREAM LEAKAGE =     2678498.8546        STREAM LEAKAGE =        9162.2832

            TOTAL IN =    50079133.0485              TOTAL IN =       86998.7351

          OUT:                                     OUT:
          ----                                     ----
             STORAGE =        1094.7911               STORAGE =          12.0307
       CONSTANT HEAD =           0.0000         CONSTANT HEAD =           0.0000
               WELLS =    14237357.1762                 WELLS =       39006.4580
            RECHARGE =           0.0000              RECHARGE =           0.0000
      STREAM LEAKAGE =    35840683.1125        STREAM LEAKAGE =       47980.2473

           TOTAL OUT =    50079135.0799             TOTAL OUT =       86998.7360

            IN - OUT =          -2.0313              IN - OUT =      -8.7341E-04

 PERCENT DISCREPANCY =          -0.00     PERCENT DISCREPANCY =          -0.00






         TIME SUMMARY AT END OF TIME STEP    1 IN STRESS PERIOD    4
                    SECONDS     MINUTES      HOURS       DAYS        YEARS
                    -----------------------------------------------------------
   TIME STEP LENGTH 7.86240E+06 1.31040E+05  2184.0      91.000     0.24914    
 STRESS PERIOD TIME 7.86240E+06 1.31040E+05  2184.0      91.000     0.24914    
         TOTAL TIME 3.15360E+07 5.25600E+05  8760.0      365.00     0.99932    
1
1
                            STRESS PERIOD NO.    5, LENGTH =   92.00000    
                            -----------------------------------------------

                              NUMBER OF TIME STEPS =     1

                               MULTIPLIER FOR DELT =     1.500

                            INITIAL TIME STEP SIZE =   92.00000    

 WELL NO.  LAYER   ROW   COL   STRESS RATE         
 --------------------------------------------------
      1      1     12     22      -9012.    
      2      1     10     16      -9566.    
      3      1      6     24      -8299.    
      4      1      6     17     -0.1213E+05

      4 WELLS

                 RECHARGE =  5.000000E-04

 REUSING STREAM SEGMENT DATA FROM LAST STRESS PERIOD
 
 SOLVING FOR HEAD 


     7 CALLS TO PCG ROUTINE FOR TIME STEP   1 IN STRESS PERIOD    5
    26 TOTAL ITERATIONS

 OUTPUT CONTROL FOR STRESS PERIOD    5   TIME STEP    1
    SAVE BUDGET
    SAVE HEAD FOR ALL LAYERS
    PRINT HEAD FOR ALL LAYERS
 UBDSV2 SAVING "STREAMFLOW OUT  " ON UNIT  50 AT TIME STEP  1, STRESS PERIOD   5



 STREAM LISTING     PERIOD      5   STEP        1

 LAYER ROW COL. STREAM  RCH.  FLOW INTO     FLOW TO   FLOW OUT OF   OVRLND.     DIRECT     STREAM       STREAM     STREAM     STREAM   STREAMBED  STREAMBED
                SEG.NO.  NO.  STRM. RCH.    AQUIFER    STRM. RCH.    RUNOFF     PRECIP       ET          HEAD       DEPTH      WIDTH   CONDCTNC.   GRADIENT

   1   13    1     1     1    1.0000E+05 -1.9571E+03   1.0196E+05  0.000E+00  0.000E+00  0.000E+00  4.84069E+01  1.455E-01  2.000E+01  2.000E+04 -9.785E-02
   1   13    2     1     2    1.0196E+05 -2.9592E+03   1.0492E+05  0.000E+00  0.000E+00  0.000E+00  4.79317E+01  1.476E-01  2.000E+01  2.000E+04 -1.480E-01
   1   14    3     1     3    1.0492E+05 -4.9218E+02   1.0541E+05  0.000E+00  0.000E+00  0.000E+00  4.74559E+01  1.491E-01  2.000E+01  2.000E+04 -2.461E-02
   1   15    4     1     4    1.0541E+05 -4.6480E+02   1.0587E+05  0.000E+00  0.000E+00  0.000E+00  4.69790E+01  1.495E-01  2.000E+01  2.000E+04 -2.324E-02
   1   16    5     1     5    1.0587E+05 -1.7446E+03   1.0762E+05  0.000E+00  0.000E+00  0.000E+00  4.65027E+01  1.504E-01  2.000E+01  2.000E+04 -8.723E-02
   1   16    6     1     6    1.0762E+05 -1.1107E+03   1.0873E+05  0.000E+00  0.000E+00  0.000E+00  4.60266E+01  1.516E-01  2.000E+01  2.000E+04 -5.553E-02
   1   16    7     1     7    1.0873E+05 -1.0949E+03   1.0982E+05  0.000E+00  0.000E+00  0.000E+00  4.55503E+01  1.526E-01  2.000E+01  2.000E+04 -5.474E-02
   1   16    8     1     8    1.0982E+05 -1.0913E+03   1.1091E+05  0.000E+00  0.000E+00  0.000E+00  4.50739E+01  1.535E-01  2.000E+01  2.000E+04 -5.456E-02
   1   16    9     1     9    1.1091E+05 -1.0812E+03   1.1200E+05  0.000E+00  0.000E+00  0.000E+00  4.45976E+01  1.544E-01  2.000E+01  2.000E+04 -5.406E-02
   1   16   10     1    10    1.1200E+05 -1.0657E+03   1.1306E+05  0.000E+00  0.000E+00  0.000E+00  4.41212E+01  1.553E-01  2.000E+01  2.000E+04 -5.328E-02
   1   16   11     1    11    1.1306E+05 -1.0682E+03   1.1413E+05  0.000E+00  0.000E+00  0.000E+00  4.36448E+01  1.561E-01  2.000E+01  2.000E+04 -5.341E-02
   1   16   12     1    12    1.1413E+05 -1.7660E+03   1.1590E+05  0.000E+00  0.000E+00  0.000E+00  4.31687E+01  1.573E-01  2.000E+01  2.000E+04 -8.830E-02
   1   15   13     1    13    1.1590E+05 -1.3794E+03   1.1728E+05  0.000E+00  0.000E+00  0.000E+00  4.26927E+01  1.586E-01  2.000E+01  2.000E+04 -6.897E-02
   1   14   14     1    14    1.1728E+05 -1.2758E+03   1.1855E+05  0.000E+00  0.000E+00  0.000E+00  4.22165E+01  1.597E-01  2.000E+01  2.000E+04 -6.379E-02
   1   13   15     1    15    1.1855E+05 -8.8447E+02   1.1944E+05  0.000E+00  0.000E+00  0.000E+00  4.17401E+01  1.606E-01  2.000E+01  2.000E+04 -4.422E-02
   1   12   16     1    16    1.1944E+05  6.8074E+02   1.1875E+05  0.000E+00  0.000E+00  0.000E+00  4.12629E+01  1.606E-01  2.000E+01  2.000E+04  3.404E-02
   1   12   17     1    17    1.1875E+05  2.8733E+02   1.1847E+05  0.000E+00  0.000E+00  0.000E+00  4.07853E+01  1.603E-01  2.000E+01  2.000E+04  1.437E-02
   1   12   18     1    18    1.1847E+05 -8.5555E+00   1.1848E+05  0.000E+00  0.000E+00  0.000E+00  4.03079E+01  1.601E-01  2.000E+01  2.000E+04 -4.278E-04
   1   12   19     1    19    1.1848E+05  3.5037E+02   1.1813E+05  0.000E+00  0.000E+00  0.000E+00  3.98305E+01  1.600E-01  2.000E+01  2.000E+04  1.752E-02
   1   13   20     1    20    1.1813E+05  2.2614E+02   1.1790E+05  0.000E+00  0.000E+00  0.000E+00  3.93529E+01  1.598E-01  2.000E+01  2.000E+04  1.131E-02
   1   14   21     1    21    1.1790E+05 -7.4094E+02   1.1864E+05  0.000E+00  0.000E+00  0.000E+00  3.88759E+01  1.600E-01  2.000E+01  2.000E+04 -3.705E-02
   1   14   22     1    22    1.1864E+05  5.4622E+03   1.1318E+05  0.000E+00  0.000E+00  0.000E+00  3.83967E+01  1.581E-01  2.000E+01  2.000E+04  2.731E-01
   1    9   30     2     1    5.0000E+04 -5.4509E+01   5.0055E+04  0.000E+00  0.000E+00  0.000E+00  4.02409E+01  1.159E-01  2.000E+01  2.000E+04 -2.725E-03
   1    9   29     2     2    5.0055E+04 -2.8220E+02   5.0337E+04  0.000E+00  0.000E+00  0.000E+00  3.99911E+01  1.161E-01  2.000E+01  2.000E+04 -1.411E-02
   1    9   28     2     3    5.0337E+04 -3.5330E+02   5.0690E+04  0.000E+00  0.000E+00  0.000E+00  3.97416E+01  1.166E-01  2.000E+01  2.000E+04 -1.766E-02
   1    9   27     2     4    5.0690E+04 -5.2140E+02   5.1211E+04  0.000E+00  0.000E+00  0.000E+00  3.94922E+01  1.172E-01  2.000E+01  2.000E+04 -2.607E-02
   1   10   26     2     5    5.1211E+04  5.2772E+01   5.1159E+04  0.000E+00  0.000E+00  0.000E+00  3.92425E+01  1.175E-01  2.000E+01  2.000E+04  2.639E-03
   1   11   25     2     6    5.1159E+04  3.5170E+02   5.0807E+04  0.000E+00  0.000E+00  0.000E+00  3.89922E+01  1.172E-01  2.000E+01  2.000E+04  1.759E-02
   1   12   24     2     7    5.0807E+04  1.4704E+03   4.9337E+04  0.000E+00  0.000E+00  0.000E+00  3.87410E+01  1.160E-01  2.000E+01  2.000E+04  7.352E-02
   1   13   23     2     8    4.9337E+04  4.7447E+02   4.8862E+04  0.000E+00  0.000E+00  0.000E+00  3.84896E+01  1.146E-01  2.000E+01  2.000E+04  2.372E-02
   1   14   22     2     9    4.8862E+04  2.2818E+03   4.6580E+04  0.000E+00  0.000E+00  0.000E+00  3.82377E+01  1.127E-01  2.000E+01  2.000E+04  1.141E-01
   1   14   22     3     1    1.5976E+05 -8.1323E+03   1.6789E+05  0.000E+00  0.000E+00  0.000E+00  3.77170E+01  1.614E-01  2.000E+01  2.000E+04 -4.066E-01
   1   15   23     3     2    1.6789E+05 -5.5200E+02   1.6844E+05  0.000E+00  0.000E+00  0.000E+00  3.68306E+01  1.640E-01  2.000E+01  2.000E+04 -2.760E-02
   1   15   24     3     3    1.6844E+05 -2.7492E+02   1.6872E+05  0.000E+00  0.000E+00  0.000E+00  3.59420E+01  1.642E-01  2.000E+01  2.000E+04 -1.375E-02
   1   15   25     3     4    1.6872E+05 -2.6379E+02   1.6898E+05  0.000E+00  0.000E+00  0.000E+00  3.50533E+01  1.644E-01  2.000E+01  2.000E+04 -1.319E-02
   1   15   26     3     5    1.6898E+05 -3.0774E+02   1.6929E+05  0.000E+00  0.000E+00  0.000E+00  3.41645E+01  1.645E-01  2.000E+01  2.000E+04 -1.539E-02
   1   16   27     3     6    1.6929E+05 -3.4743E+02   1.6964E+05  0.000E+00  0.000E+00  0.000E+00  3.32758E+01  1.647E-01  2.000E+01  2.000E+04 -1.737E-02
   1   17   28     3     7    1.6964E+05 -1.5309E+03   1.7117E+05  0.000E+00  0.000E+00  0.000E+00  3.23875E+01  1.653E-01  2.000E+01  2.000E+04 -7.655E-02
   1   18   29     3     8    1.7117E+05 -2.9875E+03   1.7416E+05  0.000E+00  0.000E+00  0.000E+00  3.14999E+01  1.666E-01  2.000E+01  2.000E+04 -1.494E-01
   1   18   30     3     9    1.7416E+05 -3.2062E+03   1.7736E+05  0.000E+00  0.000E+00  0.000E+00  3.06128E+01  1.684E-01  2.000E+01  2.000E+04 -1.603E-01



1
              HEAD IN LAYER   1 AT END OF TIME STEP   1 IN STRESS PERIOD    5
  ---------------------------------------------------------------------------

          1      2      3      4      5      6      7      8      9     10
         11     12     13     14     15     16     17     18     19     20
         21     22     23     24     25     26     27     28     29     30
 .........................................................................
   1  ****** ****** ****** ****** ****** ****** ****** ****** ****** ******
      ****** ****** ****** ****** ****** ****** ****** ****** ****** ******
      ****** ****** ****** ****** ****** ****** ****** ****** ****** ******
   2  ****** ****** ****** ****** ****** ****** ****** ****** ****** ******
      ****** ****** ****** ****** ****** ****** ****** ****** ****** ******
      ****** ****** ****** ****** ****** ****** ****** ****** ****** ******
   3  ****** ****** ****** ****** ****** ****** ****** ****** ****** ******
      ****** ****** ****** ****** ****** ****** ****** ****** ****** ******
      ****** ****** ****** ****** ****** ****** ****** ****** ****** ******
   4  ****** ****** ****** ****** ****** ****** ****** ****** ****** ******
      ****** ****** ****** ****** ****** ****** ****** ****** ****** ******
      ****** ****** ****** ****** ****** ****** ****** ****** ****** ******
   5  ****** ****** ****** ****** ****** ****** ****** ****** ****** ******
      ****** ****** ****** ****** ****** ****** ****** ****** ****** ******
      ****** ****** ****** ****** ****** ****** ****** ****** ****** ******
   6  ****** ****** ****** ****** ****** ****** ****** ****** ****** ******
      ****** ****** ****** ****** ****** ****** ****** ****** ****** ******
      ****** ****** ****** ****** ****** ****** ****** ****** ****** ******
   7  ****** ****** ****** ****** ****** ****** ****** ****** ****** ******
      ****** ****** ****** ****** ****** ****** ****** ****** ****** ******
      ****** ****** ****** ****** ****** ****** ****** ****** ****** ******
   8  ****** ****** ****** ****** ****** ****** ****** ****** ****** ******
      ****** ****** ****** ****** ****** ****** ****** ****** ****** ******
      ****** ****** ****** ****** ****** ****** ****** ****** ****** ******
   9  ****** ****** ****** ****** ****** ****** ****** ****** ****** ******
      ****** ****** ****** ****** ****** ****** ****** ****** ****** ******
      ****** ****** ****** ****** ****** ****** ****** ****** ****** ******
  10  ****** ****** ****** ****** ****** ****** ****** ****** ****** ******
      ****** ****** ****** ****** ****** ****** ****** ****** ****** ******
      ****** ****** ****** ****** ****** ****** ****** ****** ****** ******
  11  ****** ****** ****** ****** ****** ****** ****** ****** ****** ******
      ****** ****** ****** ****** ****** ****** ****** ****** ****** ******
      ****** ****** ****** ****** ****** ****** ****** ****** ****** ******
  12  ****** ****** ****** ****** ****** ****** ****** ****** ****** ******
      ****** ****** ****** ****** ****** ****** ****** ****** ****** ******
      ****** ****** ****** ****** ****** ****** ****** ****** ****** ******
  13  ****** ****** ****** ****** ****** ****** ****** ****** ****** ******
      ****** ****** ****** ****** ****** ****** ****** ****** ****** ******
      ****** ****** ****** ****** ****** ****** ****** ****** ****** ******
  14  ****** ****** ****** ****** ****** ****** ****** ****** ****** ******
      ****** ****** ****** ****** ****** ****** ****** ****** ****** ******
      ****** ****** ****** ****** ****** ****** ****** ****** ****** ******
  15  ****** ****** ****** ****** ****** ****** ****** ****** ****** ******
      ****** ****** ****** ****** ****** ****** ****** ****** ****** ******
      ****** ****** ****** ****** ****** ****** ****** ****** ****** ******
  16  ****** ****** ****** ****** ****** ****** ****** ****** ****** ******
      ****** ****** ****** ****** ****** ****** ****** ****** ****** ******
      ****** ****** ****** ****** ****** ****** ****** ****** ****** ******
  17  ****** ****** ****** ****** ****** ****** ****** ****** ****** ******
      ****** ****** ****** ****** ****** ****** ****** ****** ****** ******
      ****** ****** ****** ****** ****** ****** ****** ****** ****** ******
  18  ****** ****** ****** ****** ****** ****** ****** ****** ****** ******
      ****** ****** ****** ****** ****** ****** ****** ****** ****** ******
      ****** ****** ****** ****** ****** ****** ****** ****** ****** ******
  19  ****** ****** ****** ****** ****** ****** ****** ****** ****** ******
      ****** ****** ****** ****** ****** ****** ****** ****** ****** ******
      ****** ****** ****** ****** ****** ****** ****** ****** ****** ******
  20  ****** ****** ****** ****** ****** ****** ****** ****** ****** ******
      ****** ****** ****** ****** ****** ****** ****** ****** ****** ******
      ****** ****** ****** ****** ****** ****** ****** ****** ****** ******
  21  ****** ****** ****** ****** ****** ****** ****** ****** ****** ******
      ****** ****** ****** ****** ****** ****** ****** ****** ****** ******
      ****** ****** ****** ****** ****** ****** ****** ****** ****** ******
  22  ****** ****** ****** ****** ****** ****** ****** ****** ****** ******
      ****** ****** ****** ****** ****** ****** ****** ****** ****** ******
      ****** ****** ****** ****** ****** ****** ****** ****** ****** ******
  23  ****** ****** ****** ****** ****** ****** ****** ****** ****** ******
      ****** ****** ****** ****** ****** ****** ****** ****** ****** ******
      ****** ****** ****** ****** ****** ****** ****** ****** ****** ******
  24  ****** ****** ****** ****** ****** ****** ****** ****** ****** ******
      ****** ****** ****** ****** ****** ****** ****** ****** ****** ******
      ****** ****** ****** ****** ****** ****** ****** ****** ****** ******
  25  ****** ****** ****** ****** ****** ****** ****** ****** ****** ******
      ****** ****** ****** ****** ****** ****** ****** ****** ****** ******
      ****** ****** ****** ****** ****** ****** ****** ****** ****** ******

 HEAD WILL BE SAVED ON UNIT   51 AT END OF TIME STEP    1, STRESS PERIOD    5
1
  VOLUMETRIC BUDGET FOR ENTIRE MODEL AT END OF TIME STEP    1, STRESS PERIOD   5
  ------------------------------------------------------------------------------

     CUMULATIVE VOLUMES      L**3       RATES FOR THIS TIME STEP      L**3/T
     ------------------                 ------------------------

           IN:                                      IN:
           ---                                      ---
             STORAGE =    32371286.3369               STORAGE =       19591.0001
       CONSTANT HEAD =    11061172.1601         CONSTANT HEAD =       32976.6554
               WELLS =           0.0000                 WELLS =           0.0000
            RECHARGE =    10074000.0000              RECHARGE =       13800.0000
      STREAM LEAKAGE =     3749185.0273        STREAM LEAKAGE =       11637.8932

            TOTAL IN =    57255643.5243              TOTAL IN =       78005.5486

          OUT:                                     OUT:
          ----                                     ----
             STORAGE =        1094.7911               STORAGE =           0.0000
       CONSTANT HEAD =           0.0000         CONSTANT HEAD =           0.0000
               WELLS =    17825951.3138                 WELLS =       39006.4580
            RECHARGE =           0.0000              RECHARGE =           0.0000
      STREAM LEAKAGE =    39428599.7559        STREAM LEAKAGE =       38999.0940

           TOTAL OUT =    57255645.8609             TOTAL OUT =       78005.5520

            IN - OUT =          -2.3366              IN - OUT =      -3.3181E-03

 PERCENT DISCREPANCY =          -0.00     PERCENT DISCREPANCY =          -0.00






         TIME SUMMARY AT END OF TIME STEP    1 IN STRESS PERIOD    5
                    SECONDS     MINUTES      HOURS       DAYS        YEARS
                    -----------------------------------------------------------
   TIME STEP LENGTH 7.94880E+06 1.32480E+05  2208.0      92.000     0.25188    
 STRESS PERIOD TIME 7.94880E+06 1.32480E+05  2208.0      92.000     0.25188    
         TOTAL TIME 3.94848E+07 6.58080E+05  10968.      457.00      1.2512    
1
1
                            STRESS PERIOD NO.    6, LENGTH =   91.00000    
                            -----------------------------------------------

                              NUMBER OF TIME STEPS =     1

                               MULTIPLIER FOR DELT =     1.500

                            INITIAL TIME STEP SIZE =   91.00000    

 WELL NO.  LAYER   ROW   COL   STRESS RATE         
 --------------------------------------------------
      1      1     12     22      -9012.    
      2      1     10     16      -9566.    
      3      1      6     24      -8299.    
      4      1      6     17     -0.1213E+05

      4 WELLS

                 RECHARGE =  2.000000E-03

 REUSING STREAM SEGMENT DATA FROM LAST STRESS PERIOD
 
 SOLVING FOR HEAD 


     7 CALLS TO PCG ROUTINE FOR TIME STEP   1 IN STRESS PERIOD    6
    26 TOTAL ITERATIONS

 OUTPUT CONTROL FOR STRESS PERIOD    6   TIME STEP    1
    SAVE BUDGET
    SAVE HEAD FOR ALL LAYERS
    PRINT HEAD FOR ALL LAYERS
 UBDSV2 SAVING "STREAMFLOW OUT  " ON UNIT  50 AT TIME STEP  1, STRESS PERIOD   6



 STREAM LISTING     PERIOD      6   STEP        1

 LAYER ROW COL. STREAM  RCH.  FLOW INTO     FLOW TO   FLOW OUT OF   OVRLND.     DIRECT     STREAM       STREAM     STREAM     STREAM   STREAMBED  STREAMBED
                SEG.NO.  NO.  STRM. RCH.    AQUIFER    STRM. RCH.    RUNOFF     PRECIP       ET          HEAD       DEPTH      WIDTH   CONDCTNC.   GRADIENT

   1   13    1     1     1    1.0000E+05 -2.2480E+03   1.0225E+05  0.000E+00  0.000E+00  0.000E+00  4.84070E+01  1.456E-01  2.000E+01  2.000E+04 -1.124E-01
   1   13    2     1     2    1.0225E+05 -3.2766E+03   1.0552E+05  0.000E+00  0.000E+00  0.000E+00  4.79321E+01  1.480E-01  2.000E+01  2.000E+04 -1.638E-01
   1   14    3     1     3    1.0552E+05 -6.4405E+02   1.0617E+05  0.000E+00  0.000E+00  0.000E+00  4.74565E+01  1.497E-01  2.000E+01  2.000E+04 -3.220E-02
   1   15    4     1     4    1.0617E+05 -6.2909E+02   1.0680E+05  0.000E+00  0.000E+00  0.000E+00  4.69798E+01  1.502E-01  2.000E+01  2.000E+04 -3.145E-02
   1   16    5     1     5    1.0680E+05 -2.2428E+03   1.0904E+05  0.000E+00  0.000E+00  0.000E+00  4.65037E+01  1.514E-01  2.000E+01  2.000E+04 -1.121E-01
   1   16    6     1     6    1.0904E+05 -1.4016E+03   1.1044E+05  0.000E+00  0.000E+00  0.000E+00  4.60279E+01  1.529E-01  2.000E+01  2.000E+04 -7.008E-02
   1   16    7     1     7    1.1044E+05 -1.3702E+03   1.1181E+05  0.000E+00  0.000E+00  0.000E+00  4.55518E+01  1.541E-01  2.000E+01  2.000E+04 -6.851E-02
   1   16    8     1     8    1.1181E+05 -1.3621E+03   1.1317E+05  0.000E+00  0.000E+00  0.000E+00  4.50757E+01  1.552E-01  2.000E+01  2.000E+04 -6.810E-02
   1   16    9     1     9    1.1317E+05 -1.3518E+03   1.1453E+05  0.000E+00  0.000E+00  0.000E+00  4.45995E+01  1.564E-01  2.000E+01  2.000E+04 -6.759E-02
   1   16   10     1    10    1.1453E+05 -1.3387E+03   1.1586E+05  0.000E+00  0.000E+00  0.000E+00  4.41234E+01  1.575E-01  2.000E+01  2.000E+04 -6.693E-02
   1   16   11     1    11    1.1586E+05 -1.3457E+03   1.1721E+05  0.000E+00  0.000E+00  0.000E+00  4.36472E+01  1.586E-01  2.000E+01  2.000E+04 -6.729E-02
   1   16   12     1    12    1.1721E+05 -2.2129E+03   1.1942E+05  0.000E+00  0.000E+00  0.000E+00  4.31714E+01  1.600E-01  2.000E+01  2.000E+04 -1.106E-01
   1   15   13     1    13    1.1942E+05 -1.8253E+03   1.2125E+05  0.000E+00  0.000E+00  0.000E+00  4.26957E+01  1.616E-01  2.000E+01  2.000E+04 -9.127E-02
   1   14   14     1    14    1.2125E+05 -1.7083E+03   1.2296E+05  0.000E+00  0.000E+00  0.000E+00  4.22199E+01  1.631E-01  2.000E+01  2.000E+04 -8.542E-02
   1   13   15     1    15    1.2296E+05 -1.2890E+03   1.2425E+05  0.000E+00  0.000E+00  0.000E+00  4.17438E+01  1.643E-01  2.000E+01  2.000E+04 -6.445E-02
   1   12   16     1    16    1.2425E+05  3.3869E+02   1.2391E+05  0.000E+00  0.000E+00  0.000E+00  4.12669E+01  1.646E-01  2.000E+01  2.000E+04  1.693E-02
   1   12   17     1    17    1.2391E+05 -3.6419E+00   1.2391E+05  0.000E+00  0.000E+00  0.000E+00  4.07895E+01  1.645E-01  2.000E+01  2.000E+04 -1.821E-04
   1   12   18     1    18    1.2391E+05 -3.0578E+02   1.2422E+05  0.000E+00  0.000E+00  0.000E+00  4.03124E+01  1.646E-01  2.000E+01  2.000E+04 -1.529E-02
   1   12   19     1    19    1.2422E+05 -1.6397E+01   1.2423E+05  0.000E+00  0.000E+00  0.000E+00  3.98352E+01  1.648E-01  2.000E+01  2.000E+04 -8.198E-04
   1   13   20     1    20    1.2423E+05 -1.8673E+02   1.2442E+05  0.000E+00  0.000E+00  0.000E+00  3.93580E+01  1.648E-01  2.000E+01  2.000E+04 -9.336E-03
   1   14   21     1    21    1.2442E+05 -1.1559E+03   1.2558E+05  0.000E+00  0.000E+00  0.000E+00  3.88813E+01  1.654E-01  2.000E+01  2.000E+04 -5.780E-02
   1   14   22     1    22    1.2558E+05  5.3541E+03   1.2022E+05  0.000E+00  0.000E+00  0.000E+00  3.84023E+01  1.637E-01  2.000E+01  2.000E+04  2.677E-01
   1    9   30     2     1    5.0000E+04 -4.0682E+02   5.0407E+04  0.000E+00  0.000E+00  0.000E+00  4.02411E+01  1.161E-01  2.000E+01  2.000E+04 -2.034E-02
   1    9   29     2     2    5.0407E+04 -6.2946E+02   5.1036E+04  0.000E+00  0.000E+00  0.000E+00  3.99919E+01  1.169E-01  2.000E+01  2.000E+04 -3.147E-02
   1    9   28     2     3    5.1036E+04 -6.9195E+02   5.1728E+04  0.000E+00  0.000E+00  0.000E+00  3.97428E+01  1.178E-01  2.000E+01  2.000E+04 -3.460E-02
   1    9   27     2     4    5.1728E+04 -9.3996E+02   5.2668E+04  0.000E+00  0.000E+00  0.000E+00  3.94939E+01  1.189E-01  2.000E+01  2.000E+04 -4.700E-02
   1   10   26     2     5    5.2668E+04 -3.9607E+02   5.3064E+04  0.000E+00  0.000E+00  0.000E+00  3.92448E+01  1.198E-01  2.000E+01  2.000E+04 -1.980E-02
   1   11   25     2     6    5.3064E+04 -8.4862E+01   5.3149E+04  0.000E+00  0.000E+00  0.000E+00  3.89951E+01  1.201E-01  2.000E+01  2.000E+04 -4.243E-03
   1   12   24     2     7    5.3149E+04  1.0777E+03   5.2071E+04  0.000E+00  0.000E+00  0.000E+00  3.87445E+01  1.195E-01  2.000E+01  2.000E+04  5.388E-02
   1   13   23     2     8    5.2071E+04  3.3923E+02   5.1732E+04  0.000E+00  0.000E+00  0.000E+00  3.84935E+01  1.185E-01  2.000E+01  2.000E+04  1.696E-02
   1   14   22     2     9    5.1732E+04  2.1430E+03   4.9589E+04  0.000E+00  0.000E+00  0.000E+00  3.82418E+01  1.168E-01  2.000E+01  2.000E+04  1.072E-01
   1   14   22     3     1    1.6981E+05 -8.2353E+03   1.7805E+05  0.000E+00  0.000E+00  0.000E+00  3.77229E+01  1.673E-01  2.000E+01  2.000E+04 -4.118E-01
   1   15   23     3     2    1.7805E+05 -6.9119E+02   1.7874E+05  0.000E+00  0.000E+00  0.000E+00  3.68365E+01  1.699E-01  2.000E+01  2.000E+04 -3.456E-02
   1   15   24     3     3    1.7874E+05 -3.9789E+02   1.7914E+05  0.000E+00  0.000E+00  0.000E+00  3.59480E+01  1.702E-01  2.000E+01  2.000E+04 -1.989E-02
   1   15   25     3     4    1.7914E+05 -3.9108E+02   1.7953E+05  0.000E+00  0.000E+00  0.000E+00  3.50593E+01  1.704E-01  2.000E+01  2.000E+04 -1.955E-02
   1   15   26     3     5    1.7953E+05 -4.5968E+02   1.7999E+05  0.000E+00  0.000E+00  0.000E+00  3.41707E+01  1.707E-01  2.000E+01  2.000E+04 -2.298E-02
   1   16   27     3     6    1.7999E+05 -5.1720E+02   1.8050E+05  0.000E+00  0.000E+00  0.000E+00  3.32820E+01  1.709E-01  2.000E+01  2.000E+04 -2.586E-02
   1   17   28     3     7    1.8050E+05 -1.9976E+03   1.8250E+05  0.000E+00  0.000E+00  0.000E+00  3.23939E+01  1.716E-01  2.000E+01  2.000E+04 -9.988E-02
   1   18   29     3     8    1.8250E+05 -3.4358E+03   1.8594E+05  0.000E+00  0.000E+00  0.000E+00  3.15065E+01  1.732E-01  2.000E+01  2.000E+04 -1.718E-01
   1   18   30     3     9    1.8594E+05 -3.5677E+03   1.8950E+05  0.000E+00  0.000E+00  0.000E+00  3.06196E+01  1.751E-01  2.000E+01  2.000E+04 -1.784E-01



1
              HEAD IN LAYER   1 AT END OF TIME STEP   1 IN STRESS PERIOD    6
  ---------------------------------------------------------------------------

          1      2      3      4      5      6      7      8      9     10
         11     12     13     14     15     16     17     18     19     20
         21     22     23     24     25     26     27     28     29     30
 .........................................................................
   1  ****** ****** ****** ****** ****** ****** ****** ****** ****** ******
      ****** ****** ****** ****** ****** ****** ****** ****** ****** ******
      ****** ****** ****** ****** ****** ****** ****** ****** ****** ******
   2  ****** ****** ****** ****** ****** ****** ****** ****** ****** ******
      ****** ****** ****** ****** ****** ****** ****** ****** ****** ******
      ****** ****** ****** ****** ****** ****** ****** ****** ****** ******
   3  ****** ****** ****** ****** ****** ****** ****** ****** ****** ******
      ****** ****** ****** ****** ****** ****** ****** ****** ****** ******
      ****** ****** ****** ****** ****** ****** ****** ****** ****** ******
   4  ****** ****** ****** ****** ****** ****** ****** ****** ****** ******
      ****** ****** ****** ****** ****** ****** ****** ****** ****** ******
      ****** ****** ****** ****** ****** ****** ****** ****** ****** ******
   5  ****** ****** ****** ****** ****** ****** ****** ****** ****** ******
      ****** ****** ****** ****** ****** ****** ****** ****** ****** ******
      ****** ****** ****** ****** ****** ****** ****** ****** ****** ******
   6  ****** ****** ****** ****** ****** ****** ****** ****** ****** ******
      ****** ****** ****** ****** ****** ****** ****** ****** ****** ******
      ****** ****** ****** ****** ****** ****** ****** ****** ****** ******
   7  ****** ****** ****** ****** ****** ****** ****** ****** ****** ******
      ****** ****** ****** ****** ****** ****** ****** ****** ****** ******
      ****** ****** ****** ****** ****** ****** ****** ****** ****** ******
   8  ****** ****** ****** ****** ****** ****** ****** ****** ****** ******
      ****** ****** ****** ****** ****** ****** ****** ****** ****** ******
      ****** ****** ****** ****** ****** ****** ****** ****** ****** ******
   9  ****** ****** ****** ****** ****** ****** ****** ****** ****** ******
      ****** ****** ****** ****** ****** ****** ****** ****** ****** ******
      ****** ****** ****** ****** ****** ****** ****** ****** ****** ******
  10  ****** ****** ****** ****** ****** ****** ****** ****** ****** ******
      ****** ****** ****** ****** ****** ****** ****** ****** ****** ******
      ****** ****** ****** ****** ****** ****** ****** ****** ****** ******
  11  ****** ****** ****** ****** ****** ****** ****** ****** ****** ******
      ****** ****** ****** ****** ****** ****** ****** ****** ****** ******
      ****** ****** ****** ****** ****** ****** ****** ****** ****** ******
  12  ****** ****** ****** ****** ****** ****** ****** ****** ****** ******
      ****** ****** ****** ****** ****** ****** ****** ****** ****** ******
      ****** ****** ****** ****** ****** ****** ****** ****** ****** ******
  13  ****** ****** ****** ****** ****** ****** ****** ****** ****** ******
      ****** ****** ****** ****** ****** ****** ****** ****** ****** ******
      ****** ****** ****** ****** ****** ****** ****** ****** ****** ******
  14  ****** ****** ****** ****** ****** ****** ****** ****** ****** ******
      ****** ****** ****** ****** ****** ****** ****** ****** ****** ******
      ****** ****** ****** ****** ****** ****** ****** ****** ****** ******
  15  ****** ****** ****** ****** ****** ****** ****** ****** ****** ******
      ****** ****** ****** ****** ****** ****** ****** ****** ****** ******
      ****** ****** ****** ****** ****** ****** ****** ****** ****** ******
  16  ****** ****** ****** ****** ****** ****** ****** ****** ****** ******
      ****** ****** ****** ****** ****** ****** ****** ****** ****** ******
      ****** ****** ****** ****** ****** ****** ****** ****** ****** ******
  17  ****** ****** ****** ****** ****** ****** ****** ****** ****** ******
      ****** ****** ****** ****** ****** ****** ****** ****** ****** ******
      ****** ****** ****** ****** ****** ****** ****** ****** ****** ******
  18  ****** ****** ****** ****** ****** ****** ****** ****** ****** ******
      ****** ****** ****** ****** ****** ****** ****** ****** ****** ******
      ****** ****** ****** ****** ****** ****** ****** ****** ****** ******
  19  ****** ****** ****** ****** ****** ****** ****** ****** ****** ******
      ****** ****** ****** ****** ****** ****** ****** ****** ****** ******
      ****** ****** ****** ****** ****** ****** ****** ****** ****** ******
  20  ****** ****** ****** ****** ****** ****** ****** ****** ****** ******
      ****** ****** ****** ****** ****** ****** ****** ****** ****** ******
      ****** ****** ****** ****** ****** ****** ****** ****** ****** ******
  21  ****** ****** ****** ****** ****** ****** ****** ****** ****** ******
      ****** ****** ****** ****** ****** ****** ****** ****** ****** ******
      ****** ****** ****** ****** ****** ****** ****** ****** ****** ******
  22  ****** ****** ****** ****** ****** ****** ****** ****** ****** ******
      ****** ****** ****** ****** ****** ****** ****** ****** ****** ******
      ****** ****** ****** ****** ****** ****** ****** ****** ****** ******
  23  ****** ****** ****** ****** ****** ****** ****** ****** ****** ******
      ****** ****** ****** ****** ****** ****** ****** ****** ****** ******
      ****** ****** ****** ****** ****** ****** ****** ****** ****** ******
  24  ****** ****** ****** ****** ****** ****** ****** ****** ****** ******
      ****** ****** ****** ****** ****** ****** ****** ****** ****** ******
      ****** ****** ****** ****** ****** ****** ****** ****** ****** ******
  25  ****** ****** ****** ****** ****** ****** ****** ****** ****** ******
      ****** ****** ****** ****** ****** ****** ****** ****** ****** ******
      ****** ****** ****** ****** ****** ****** ****** ****** ****** ******

 HEAD WILL BE SAVED ON UNIT   51 AT END OF TIME STEP    1, STRESS PERIOD    6
1
  VOLUMETRIC BUDGET FOR ENTIRE MODEL AT END OF TIME STEP    1, STRESS PERIOD   6
  ------------------------------------------------------------------------------

     CUMULATIVE VOLUMES      L**3       RATES FOR THIS TIME STEP      L**3/T
     ------------------                 ------------------------

           IN:                                      IN:
           ---                                      ---
             STORAGE =    32374293.8418               STORAGE =          33.0495
       CONSTANT HEAD =    13899025.8399         CONSTANT HEAD =       31185.2053
               WELLS =           0.0000                 WELLS =           0.0000
            RECHARGE =    15097200.0000              RECHARGE =       55200.0000
      STREAM LEAKAGE =     4591186.5184        STREAM LEAKAGE =        9252.7636

            TOTAL IN =    65961706.2001              TOTAL IN =       95671.0184

          OUT:                                     OUT:
          ----                                     ----
             STORAGE =      720662.7743               STORAGE =        7907.3405
       CONSTANT HEAD =           0.0000         CONSTANT HEAD =           0.0000
               WELLS =    21375538.9934                 WELLS =       39006.4580
            RECHARGE =           0.0000              RECHARGE =           0.0000
      STREAM LEAKAGE =    43865506.5079        STREAM LEAKAGE =       48757.2171

           TOTAL OUT =    65961708.2756             TOTAL OUT =       95671.0155

            IN - OUT =          -2.0755              IN - OUT =       2.8692E-03

 PERCENT DISCREPANCY =          -0.00     PERCENT DISCREPANCY =           0.00






         TIME SUMMARY AT END OF TIME STEP    1 IN STRESS PERIOD    6
                    SECONDS     MINUTES      HOURS       DAYS        YEARS
                    -----------------------------------------------------------
   TIME STEP LENGTH 7.86240E+06 1.31040E+05  2184.0      91.000     0.24914    
 STRESS PERIOD TIME 7.86240E+06 1.31040E+05  2184.0      91.000     0.24914    
         TOTAL TIME 4.73472E+07 7.89120E+05  13152.      548.00      1.5003    
1
1
                            STRESS PERIOD NO.    7, LENGTH =   91.00000    
                            -----------------------------------------------

                              NUMBER OF TIME STEPS =     1

                               MULTIPLIER FOR DELT =     1.500

                            INITIAL TIME STEP SIZE =   91.00000    

 WELL NO.  LAYER   ROW   COL   STRESS RATE         
 --------------------------------------------------
      1      1     12     22      -9012.    
      2      1     10     16      -9566.    
      3      1      6     24      -8299.    
      4      1      6     17     -0.1213E+05

      4 WELLS

                 RECHARGE =   0.00000    

 REUSING STREAM SEGMENT DATA FROM LAST STRESS PERIOD
 
 SOLVING FOR HEAD 


     7 CALLS TO PCG ROUTINE FOR TIME STEP   1 IN STRESS PERIOD    7
    26 TOTAL ITERATIONS

 OUTPUT CONTROL FOR STRESS PERIOD    7   TIME STEP    1
    SAVE BUDGET
    SAVE HEAD FOR ALL LAYERS
    PRINT HEAD FOR ALL LAYERS
 UBDSV2 SAVING "STREAMFLOW OUT  " ON UNIT  50 AT TIME STEP  1, STRESS PERIOD   7



 STREAM LISTING     PERIOD      7   STEP        1

 LAYER ROW COL. STREAM  RCH.  FLOW INTO     FLOW TO   FLOW OUT OF   OVRLND.     DIRECT     STREAM       STREAM     STREAM     STREAM   STREAMBED  STREAMBED
                SEG.NO.  NO.  STRM. RCH.    AQUIFER    STRM. RCH.    RUNOFF     PRECIP       ET          HEAD       DEPTH      WIDTH   CONDCTNC.   GRADIENT

   1   13    1     1     1    1.0000E+05 -1.5635E+03   1.0156E+05  0.000E+00  0.000E+00  0.000E+00  4.84067E+01  1.453E-01  2.000E+01  2.000E+04 -7.818E-02
   1   13    2     1     2    1.0156E+05 -2.5102E+03   1.0407E+05  0.000E+00  0.000E+00  0.000E+00  4.79312E+01  1.471E-01  2.000E+01  2.000E+04 -1.255E-01
   1   14    3     1     3    1.0407E+05 -3.8952E+02   1.0446E+05  0.000E+00  0.000E+00  0.000E+00  4.74551E+01  1.483E-01  2.000E+01  2.000E+04 -1.948E-02
   1   15    4     1     4    1.0446E+05 -3.6453E+02   1.0483E+05  0.000E+00  0.000E+00  0.000E+00  4.69782E+01  1.486E-01  2.000E+01  2.000E+04 -1.823E-02
   1   16    5     1     5    1.0483E+05 -1.4902E+03   1.0632E+05  0.000E+00  0.000E+00  0.000E+00  4.65017E+01  1.494E-01  2.000E+01  2.000E+04 -7.451E-02
   1   16    6     1     6    1.0632E+05 -9.4640E+02   1.0726E+05  0.000E+00  0.000E+00  0.000E+00  4.60255E+01  1.505E-01  2.000E+01  2.000E+04 -4.732E-02
   1   16    7     1     7    1.0726E+05 -9.3314E+02   1.0820E+05  0.000E+00  0.000E+00  0.000E+00  4.55490E+01  1.513E-01  2.000E+01  2.000E+04 -4.666E-02
   1   16    8     1     8    1.0820E+05 -9.3092E+02   1.0913E+05  0.000E+00  0.000E+00  0.000E+00  4.50725E+01  1.520E-01  2.000E+01  2.000E+04 -4.655E-02
   1   16    9     1     9    1.0913E+05 -9.2406E+02   1.1005E+05  0.000E+00  0.000E+00  0.000E+00  4.45960E+01  1.528E-01  2.000E+01  2.000E+04 -4.620E-02
   1   16   10     1    10    1.1005E+05 -9.1396E+02   1.1097E+05  0.000E+00  0.000E+00  0.000E+00  4.41195E+01  1.536E-01  2.000E+01  2.000E+04 -4.570E-02
   1   16   11     1    11    1.1097E+05 -9.2064E+02   1.1189E+05  0.000E+00  0.000E+00  0.000E+00  4.36430E+01  1.544E-01  2.000E+01  2.000E+04 -4.603E-02
   1   16   12     1    12    1.1189E+05 -1.4975E+03   1.1338E+05  0.000E+00  0.000E+00  0.000E+00  4.31667E+01  1.554E-01  2.000E+01  2.000E+04 -7.487E-02
   1   15   13     1    13    1.1338E+05 -1.0510E+03   1.1444E+05  0.000E+00  0.000E+00  0.000E+00  4.26905E+01  1.564E-01  2.000E+01  2.000E+04 -5.255E-02
   1   14   14     1    14    1.1444E+05 -9.0108E+02   1.1534E+05  0.000E+00  0.000E+00  0.000E+00  4.22140E+01  1.572E-01  2.000E+01  2.000E+04 -4.505E-02
   1   13   15     1    15    1.1534E+05 -4.7480E+02   1.1581E+05  0.000E+00  0.000E+00  0.000E+00  4.17373E+01  1.578E-01  2.000E+01  2.000E+04 -2.374E-02
   1   12   16     1    16    1.1581E+05  1.1559E+03   1.1466E+05  0.000E+00  0.000E+00  0.000E+00  4.12598E+01  1.575E-01  2.000E+01  2.000E+04  5.780E-02
   1   12   17     1    17    1.1466E+05  5.8543E+02   1.1407E+05  0.000E+00  0.000E+00  0.000E+00  4.07818E+01  1.568E-01  2.000E+01  2.000E+04  2.927E-02
   1   12   18     1    18    1.1407E+05  2.6762E+02   1.1380E+05  0.000E+00  0.000E+00  0.000E+00  4.03042E+01  1.564E-01  2.000E+01  2.000E+04  1.338E-02
   1   12   19     1    19    1.1380E+05  6.8545E+02   1.1312E+05  0.000E+00  0.000E+00  0.000E+00  3.98265E+01  1.560E-01  2.000E+01  2.000E+04  3.427E-02
   1   13   20     1    20    1.1312E+05  4.8706E+02   1.1263E+05  0.000E+00  0.000E+00  0.000E+00  3.93487E+01  1.556E-01  2.000E+01  2.000E+04  2.435E-02
   1   14   21     1    21    1.1263E+05 -4.9770E+02   1.1313E+05  0.000E+00  0.000E+00  0.000E+00  3.88715E+01  1.556E-01  2.000E+01  2.000E+04 -2.489E-02
   1   14   22     1    22    1.1313E+05  5.5129E+03   1.0761E+05  0.000E+00  0.000E+00  0.000E+00  3.83921E+01  1.535E-01  2.000E+01  2.000E+04  2.756E-01
   1    9   30     2     1    5.0000E+04  1.1278E+02   4.9887E+04  0.000E+00  0.000E+00  0.000E+00  4.02408E+01  1.158E-01  2.000E+01  2.000E+04  5.639E-03
   1    9   29     2     2    4.9887E+04 -1.1128E+02   4.9998E+04  0.000E+00  0.000E+00  0.000E+00  3.99908E+01  1.158E-01  2.000E+01  2.000E+04 -5.564E-03
   1    9   28     2     3    4.9998E+04 -1.7144E+02   5.0170E+04  0.000E+00  0.000E+00  0.000E+00  3.97410E+01  1.160E-01  2.000E+01  2.000E+04 -8.572E-03
   1    9   27     2     4    5.0170E+04 -2.2830E+02   5.0398E+04  0.000E+00  0.000E+00  0.000E+00  3.94913E+01  1.163E-01  2.000E+01  2.000E+04 -1.142E-02
   1   10   26     2     5    5.0398E+04  3.1428E+02   5.0084E+04  0.000E+00  0.000E+00  0.000E+00  3.92412E+01  1.162E-01  2.000E+01  2.000E+04  1.571E-02
   1   11   25     2     6    5.0084E+04  5.9560E+02   4.9488E+04  0.000E+00  0.000E+00  0.000E+00  3.89906E+01  1.156E-01  2.000E+01  2.000E+04  2.978E-02
   1   12   24     2     7    4.9488E+04  1.6984E+03   4.7790E+04  0.000E+00  0.000E+00  0.000E+00  3.87390E+01  1.140E-01  2.000E+01  2.000E+04  8.492E-02
   1   13   23     2     8    4.7790E+04  5.3247E+02   4.7258E+04  0.000E+00  0.000E+00  0.000E+00  3.84874E+01  1.124E-01  2.000E+01  2.000E+04  2.662E-02
   1   14   22     2     9    4.7258E+04  2.3769E+03   4.4881E+04  0.000E+00  0.000E+00  0.000E+00  3.82353E+01  1.103E-01  2.000E+01  2.000E+04  1.188E-01
   1   14   22     3     1    1.5250E+05 -8.0770E+03   1.6057E+05  0.000E+00  0.000E+00  0.000E+00  3.77126E+01  1.571E-01  2.000E+01  2.000E+04 -4.038E-01
   1   15   23     3     2    1.6057E+05 -4.8629E+02   1.6106E+05  0.000E+00  0.000E+00  0.000E+00  3.68263E+01  1.596E-01  2.000E+01  2.000E+04 -2.431E-02
   1   15   24     3     3    1.6106E+05 -2.2514E+02   1.6128E+05  0.000E+00  0.000E+00  0.000E+00  3.59376E+01  1.598E-01  2.000E+01  2.000E+04 -1.126E-02
   1   15   25     3     4    1.6128E+05 -2.1517E+02   1.6150E+05  0.000E+00  0.000E+00  0.000E+00  3.50489E+01  1.600E-01  2.000E+01  2.000E+04 -1.076E-02
   1   15   26     3     5    1.6150E+05 -2.5901E+02   1.6176E+05  0.000E+00  0.000E+00  0.000E+00  3.41601E+01  1.601E-01  2.000E+01  2.000E+04 -1.295E-02
   1   16   27     3     6    1.6176E+05 -2.8583E+02   1.6204E+05  0.000E+00  0.000E+00  0.000E+00  3.32714E+01  1.603E-01  2.000E+01  2.000E+04 -1.429E-02
   1   17   28     3     7    1.6204E+05 -1.3595E+03   1.6340E+05  0.000E+00  0.000E+00  0.000E+00  3.23830E+01  1.608E-01  2.000E+01  2.000E+04 -6.798E-02
   1   18   29     3     8    1.6340E+05 -2.7567E+03   1.6616E+05  0.000E+00  0.000E+00  0.000E+00  3.14953E+01  1.620E-01  2.000E+01  2.000E+04 -1.378E-01
   1   18   30     3     9    1.6616E+05 -3.0435E+03   1.6920E+05  0.000E+00  0.000E+00  0.000E+00  3.06081E+01  1.637E-01  2.000E+01  2.000E+04 -1.522E-01



1
              HEAD IN LAYER   1 AT END OF TIME STEP   1 IN STRESS PERIOD    7
  ---------------------------------------------------------------------------

          1      2      3      4      5      6      7      8      9     10
         11     12     13     14     15     16     17     18     19     20
         21     22     23     24     25     26     27     28     29     30
 .........................................................................
   1  ****** ****** ****** ****** ****** ****** ****** ****** ****** ******
      ****** ****** ****** ****** ****** ****** ****** ****** ****** ******
      ****** ****** ****** ****** ****** ****** ****** ****** ****** ******
   2  ****** ****** ****** ****** ****** ****** ****** ****** ****** ******
      ****** ****** ****** ****** ****** ****** ****** ****** ****** ******
      ****** ****** ****** ****** ****** ****** ****** ****** ****** ******
   3  ****** ****** ****** ****** ****** ****** ****** ****** ****** ******
      ****** ****** ****** ****** ****** ****** ****** ****** ****** ******
      ****** ****** ****** ****** ****** ****** ****** ****** ****** ******
   4  ****** ****** ****** ****** ****** ****** ****** ****** ****** ******
      ****** ****** ****** ****** ****** ****** ****** ****** ****** ******
      ****** ****** ****** ****** ****** ****** ****** ****** ****** ******
   5  ****** ****** ****** ****** ****** ****** ****** ****** ****** ******
      ****** ****** ****** ****** ****** ****** ****** ****** ****** ******
      ****** ****** ****** ****** ****** ****** ****** ****** ****** ******
   6  ****** ****** ****** ****** ****** ****** ****** ****** ****** ******
      ****** ****** ****** ****** ****** ****** ****** ****** ****** ******
      ****** ****** ****** ****** ****** ****** ****** ****** ****** ******
   7  ****** ****** ****** ****** ****** ****** ****** ****** ****** ******
      ****** ****** ****** ****** ****** ****** ****** ****** ****** ******
      ****** ****** ****** ****** ****** ****** ****** ****** ****** ******
   8  ****** ****** ****** ****** ****** ****** ****** ****** ****** ******
      ****** ****** ****** ****** ****** ****** ****** ****** ****** ******
      ****** ****** ****** ****** ****** ****** ****** ****** ****** ******
   9  ****** ****** ****** ****** ****** ****** ****** ****** ****** ******
      ****** ****** ****** ****** ****** ****** ****** ****** ****** ******
      ****** ****** ****** ****** ****** ****** ****** ****** ****** ******
  10  ****** ****** ****** ****** ****** ****** ****** ****** ****** ******
      ****** ****** ****** ****** ****** ****** ****** ****** ****** ******
      ****** ****** ****** ****** ****** ****** ****** ****** ****** ******
  11  ****** ****** ****** ****** ****** ****** ****** ****** ****** ******
      ****** ****** ****** ****** ****** ****** ****** ****** ****** ******
      ****** ****** ****** ****** ****** ****** ****** ****** ****** ******
  12  ****** ****** ****** ****** ****** ****** ****** ****** ****** ******
      ****** ****** ****** ****** ****** ****** ****** ****** ****** ******
      ****** ****** ****** ****** ****** ****** ****** ****** ****** ******
  13  ****** ****** ****** ****** ****** ****** ****** ****** ****** ******
      ****** ****** ****** ****** ****** ****** ****** ****** ****** ******
      ****** ****** ****** ****** ****** ****** ****** ****** ****** ******
  14  ****** ****** ****** ****** ****** ****** ****** ****** ****** ******
      ****** ****** ****** ****** ****** ****** ****** ****** ****** ******
      ****** ****** ****** ****** ****** ****** ****** ****** ****** ******
  15  ****** ****** ****** ****** ****** ****** ****** ****** ****** ******
      ****** ****** ****** ****** ****** ****** ****** ****** ****** ******
      ****** ****** ****** ****** ****** ****** ****** ****** ****** ******
  16  ****** ****** ****** ****** ****** ****** ****** ****** ****** ******
      ****** ****** ****** ****** ****** ****** ****** ****** ****** ******
      ****** ****** ****** ****** ****** ****** ****** ****** ****** ******
  17  ****** ****** ****** ****** ****** ****** ****** ****** ****** ******
      ****** ****** ****** ****** ****** ****** ****** ****** ****** ******
      ****** ****** ****** ****** ****** ****** ****** ****** ****** ******
  18  ****** ****** ****** ****** ****** ****** ****** ****** ****** ******
      ****** ****** ****** ****** ****** ****** ****** ****** ****** ******
      ****** ****** ****** ****** ****** ****** ****** ****** ****** ******
  19  ****** ****** ****** ****** ****** ****** ****** ****** ****** ******
      ****** ****** ****** ****** ****** ****** ****** ****** ****** ******
      ****** ****** ****** ****** ****** ****** ****** ****** ****** ******
  20  ****** ****** ****** ****** ****** ****** ****** ****** ****** ******
      ****** ****** ****** ****** ****** ****** ****** ****** ****** ******
      ****** ****** ****** ****** ****** ****** ****** ****** ****** ******
  21  ****** ****** ****** ****** ****** ****** ****** ****** ****** ******
      ****** ****** ****** ****** ****** ****** ****** ****** ****** ******
      ****** ****** ****** ****** ****** ****** ****** ****** ****** ******
  22  ****** ****** ****** ****** ****** ****** ****** ****** ****** ******
      ****** ****** ****** ****** ****** ****** ****** ****** ****** ******
      ****** ****** ****** ****** ****** ****** ****** ****** ****** ******
  23  ****** ****** ****** ****** ****** ****** ****** ****** ****** ******
      ****** ****** ****** ****** ****** ****** ****** ****** ****** ******
      ****** ****** ****** ****** ****** ****** ****** ****** ****** ******
  24  ****** ****** ****** ****** ****** ****** ****** ****** ****** ******
      ****** ****** ****** ****** ****** ****** ****** ****** ****** ******
      ****** ****** ****** ****** ****** ****** ****** ****** ****** ******
  25  ****** ****** ****** ****** ****** ****** ****** ****** ****** ******
      ****** ****** ****** ****** ****** ****** ****** ****** ****** ******
      ****** ****** ****** ****** ****** ****** ****** ****** ****** ******

 HEAD WILL BE SAVED ON UNIT   51 AT END OF TIME STEP    1, STRESS PERIOD    7
1
  VOLUMETRIC BUDGET FOR ENTIRE MODEL AT END OF TIME STEP    1, STRESS PERIOD   7
  ------------------------------------------------------------------------------

     CUMULATIVE VOLUMES      L**3       RATES FOR THIS TIME STEP      L**3/T
     ------------------                 ------------------------

           IN:                                      IN:
           ---                                      ---
             STORAGE =    34469087.3860               STORAGE =       23019.7093
       CONSTANT HEAD =    17101338.8668         CONSTANT HEAD =       35190.2530
               WELLS =           0.0000                 WELLS =           0.0000
            RECHARGE =    15097200.0000              RECHARGE =           0.0000
      STREAM LEAKAGE =     5894746.8104        STREAM LEAKAGE =       14324.8384

            TOTAL IN =    72562373.0632              TOTAL IN =       72534.8007

          OUT:                                     OUT:
          ----                                     ----
             STORAGE =      720662.7743               STORAGE =           0.0000
       CONSTANT HEAD =           0.0000         CONSTANT HEAD =           0.0000
               WELLS =    24925126.6729                 WELLS =       39006.4580
            RECHARGE =           0.0000              RECHARGE =           0.0000
      STREAM LEAKAGE =    46916586.2043        STREAM LEAKAGE =       33528.3483

           TOTAL OUT =    72562375.6516             TOTAL OUT =       72534.8063

            IN - OUT =          -2.5883              IN - OUT =      -5.6355E-03

 PERCENT DISCREPANCY =          -0.00     PERCENT DISCREPANCY =          -0.00






         TIME SUMMARY AT END OF TIME STEP    1 IN STRESS PERIOD    7
                    SECONDS     MINUTES      HOURS       DAYS        YEARS
                    -----------------------------------------------------------
   TIME STEP LENGTH 7.86240E+06 1.31040E+05  2184.0      91.000     0.24914    
 STRESS PERIOD TIME 7.86240E+06 1.31040E+05  2184.0      91.000     0.24914    
         TOTAL TIME 5.52096E+07 9.20160E+05  15336.      639.00      1.7495    
1
1
                            STRESS PERIOD NO.    8, LENGTH =   91.00000    
                            -----------------------------------------------

                              NUMBER OF TIME STEPS =     1

                               MULTIPLIER FOR DELT =     1.500

                            INITIAL TIME STEP SIZE =   91.00000    

 WELL NO.  LAYER   ROW   COL   STRESS RATE         
 --------------------------------------------------
      1      1     12     22      -9012.    
      2      1     10     16      -9566.    
      3      1      6     24      -8299.    
      4      1      6     17     -0.1213E+05

      4 WELLS

                 RECHARGE =  1.000000E-03

 REUSING STREAM SEGMENT DATA FROM LAST STRESS PERIOD
 
 SOLVING FOR HEAD 


     6 CALLS TO PCG ROUTINE FOR TIME STEP   1 IN STRESS PERIOD    8
    22 TOTAL ITERATIONS

 OUTPUT CONTROL FOR STRESS PERIOD    8   TIME STEP    1
    SAVE BUDGET
    SAVE HEAD FOR ALL LAYERS
    PRINT HEAD FOR ALL LAYERS
 UBDSV2 SAVING "STREAMFLOW OUT  " ON UNIT  50 AT TIME STEP  1, STRESS PERIOD   8



 STREAM LISTING     PERIOD      8   STEP        1

 LAYER ROW COL. STREAM  RCH.  FLOW INTO     FLOW TO   FLOW OUT OF   OVRLND.     DIRECT     STREAM       STREAM     STREAM     STREAM   STREAMBED  STREAMBED
                SEG.NO.  NO.  STRM. RCH.    AQUIFER    STRM. RCH.    RUNOFF     PRECIP       ET          HEAD       DEPTH      WIDTH   CONDCTNC.   GRADIENT

   1   13    1     1     1    1.0000E+05 -1.6230E+03   1.0162E+05  0.000E+00  0.000E+00  0.000E+00  4.84067E+01  1.454E-01  2.000E+01  2.000E+04 -8.115E-02
   1   13    2     1     2    1.0162E+05 -2.5669E+03   1.0419E+05  0.000E+00  0.000E+00  0.000E+00  4.79313E+01  1.472E-01  2.000E+01  2.000E+04 -1.283E-01
   1   14    3     1     3    1.0419E+05 -4.5142E+02   1.0464E+05  0.000E+00  0.000E+00  0.000E+00  4.74553E+01  1.485E-01  2.000E+01  2.000E+04 -2.257E-02
   1   15    4     1     4    1.0464E+05 -4.3161E+02   1.0507E+05  0.000E+00  0.000E+00  0.000E+00  4.69784E+01  1.488E-01  2.000E+01  2.000E+04 -2.158E-02
   1   16    5     1     5    1.0507E+05 -1.6641E+03   1.0674E+05  0.000E+00  0.000E+00  0.000E+00  4.65020E+01  1.497E-01  2.000E+01  2.000E+04 -8.321E-02
   1   16    6     1     6    1.0674E+05 -1.0524E+03   1.0779E+05  0.000E+00  0.000E+00  0.000E+00  4.60259E+01  1.509E-01  2.000E+01  2.000E+04 -5.262E-02
   1   16    7     1     7    1.0779E+05 -1.0339E+03   1.0882E+05  0.000E+00  0.000E+00  0.000E+00  4.55495E+01  1.517E-01  2.000E+01  2.000E+04 -5.170E-02
   1   16    8     1     8    1.0882E+05 -1.0309E+03   1.0985E+05  0.000E+00  0.000E+00  0.000E+00  4.50731E+01  1.526E-01  2.000E+01  2.000E+04 -5.155E-02
   1   16    9     1     9    1.0985E+05 -1.0255E+03   1.1088E+05  0.000E+00  0.000E+00  0.000E+00  4.45967E+01  1.535E-01  2.000E+01  2.000E+04 -5.127E-02
   1   16   10     1    10    1.1088E+05 -1.0183E+03   1.1190E+05  0.000E+00  0.000E+00  0.000E+00  4.41202E+01  1.543E-01  2.000E+01  2.000E+04 -5.092E-02
   1   16   11     1    11    1.1190E+05 -1.0287E+03   1.1293E+05  0.000E+00  0.000E+00  0.000E+00  4.36438E+01  1.552E-01  2.000E+01  2.000E+04 -5.144E-02
   1   16   12     1    12    1.1293E+05 -1.6585E+03   1.1459E+05  0.000E+00  0.000E+00  0.000E+00  4.31676E+01  1.563E-01  2.000E+01  2.000E+04 -8.293E-02
   1   15   13     1    13    1.1459E+05 -1.2141E+03   1.1580E+05  0.000E+00  0.000E+00  0.000E+00  4.26916E+01  1.575E-01  2.000E+01  2.000E+04 -6.071E-02
   1   14   14     1    14    1.1580E+05 -1.0536E+03   1.1685E+05  0.000E+00  0.000E+00  0.000E+00  4.22152E+01  1.584E-01  2.000E+01  2.000E+04 -5.268E-02
   1   13   15     1    15    1.1685E+05 -6.1114E+02   1.1746E+05  0.000E+00  0.000E+00  0.000E+00  4.17386E+01  1.591E-01  2.000E+01  2.000E+04 -3.056E-02
   1   12   16     1    16    1.1746E+05  1.0638E+03   1.1640E+05  0.000E+00  0.000E+00  0.000E+00  4.12612E+01  1.589E-01  2.000E+01  2.000E+04  5.319E-02
   1   12   17     1    17    1.1640E+05  4.8389E+02   1.1592E+05  0.000E+00  0.000E+00  0.000E+00  4.07833E+01  1.583E-01  2.000E+01  2.000E+04  2.419E-02
   1   12   18     1    18    1.1592E+05  1.5796E+02   1.1576E+05  0.000E+00  0.000E+00  0.000E+00  4.03057E+01  1.580E-01  2.000E+01  2.000E+04  7.898E-03
   1   12   19     1    19    1.1576E+05  5.4739E+02   1.1521E+05  0.000E+00  0.000E+00  0.000E+00  3.98282E+01  1.577E-01  2.000E+01  2.000E+04  2.737E-02
   1   13   20     1    20    1.1521E+05  3.1256E+02   1.1490E+05  0.000E+00  0.000E+00  0.000E+00  3.93505E+01  1.574E-01  2.000E+01  2.000E+04  1.563E-02
   1   14   21     1    21    1.1490E+05 -6.5720E+02   1.1556E+05  0.000E+00  0.000E+00  0.000E+00  3.88734E+01  1.575E-01  2.000E+01  2.000E+04 -3.286E-02
   1   14   22     1    22    1.1556E+05  5.4644E+03   1.1009E+05  0.000E+00  0.000E+00  0.000E+00  3.83941E+01  1.555E-01  2.000E+01  2.000E+04  2.732E-01
   1    9   30     2     1    5.0000E+04 -4.6713E+01   5.0047E+04  0.000E+00  0.000E+00  0.000E+00  4.02409E+01  1.159E-01  2.000E+01  2.000E+04 -2.336E-03
   1    9   29     2     2    5.0047E+04 -2.6774E+02   5.0314E+04  0.000E+00  0.000E+00  0.000E+00  3.99911E+01  1.161E-01  2.000E+01  2.000E+04 -1.339E-02
   1    9   28     2     3    5.0314E+04 -3.2168E+02   5.0636E+04  0.000E+00  0.000E+00  0.000E+00  3.97415E+01  1.165E-01  2.000E+01  2.000E+04 -1.608E-02
   1    9   27     2     4    5.0636E+04 -3.9714E+02   5.1033E+04  0.000E+00  0.000E+00  0.000E+00  3.94920E+01  1.170E-01  2.000E+01  2.000E+04 -1.986E-02
   1   10   26     2     5    5.1033E+04  1.1647E+02   5.0917E+04  0.000E+00  0.000E+00  0.000E+00  3.92422E+01  1.172E-01  2.000E+01  2.000E+04  5.824E-03
   1   11   25     2     6    5.0917E+04  3.9864E+02   5.0518E+04  0.000E+00  0.000E+00  0.000E+00  3.89919E+01  1.169E-01  2.000E+01  2.000E+04  1.993E-02
   1   12   24     2     7    5.0518E+04  1.5200E+03   4.8998E+04  0.000E+00  0.000E+00  0.000E+00  3.87405E+01  1.155E-01  2.000E+01  2.000E+04  7.600E-02
   1   13   23     2     8    4.8998E+04  4.5921E+02   4.8539E+04  0.000E+00  0.000E+00  0.000E+00  3.84891E+01  1.141E-01  2.000E+01  2.000E+04  2.296E-02
   1   14   22     2     9    4.8539E+04  2.3250E+03   4.6214E+04  0.000E+00  0.000E+00  0.000E+00  3.82372E+01  1.122E-01  2.000E+01  2.000E+04  1.162E-01
   1   14   22     3     1    1.5631E+05 -8.1204E+03   1.6443E+05  0.000E+00  0.000E+00  0.000E+00  3.77149E+01  1.594E-01  2.000E+01  2.000E+04 -4.060E-01
   1   15   23     3     2    1.6443E+05 -5.5116E+02   1.6498E+05  0.000E+00  0.000E+00  0.000E+00  3.68286E+01  1.619E-01  2.000E+01  2.000E+04 -2.756E-02
   1   15   24     3     3    1.6498E+05 -2.8603E+02   1.6526E+05  0.000E+00  0.000E+00  0.000E+00  3.59400E+01  1.622E-01  2.000E+01  2.000E+04 -1.430E-02
   1   15   25     3     4    1.6526E+05 -2.7773E+02   1.6554E+05  0.000E+00  0.000E+00  0.000E+00  3.50512E+01  1.623E-01  2.000E+01  2.000E+04 -1.389E-02
   1   15   26     3     5    1.6554E+05 -3.3387E+02   1.6587E+05  0.000E+00  0.000E+00  0.000E+00  3.41625E+01  1.625E-01  2.000E+01  2.000E+04 -1.669E-02
   1   16   27     3     6    1.6587E+05 -3.6805E+02   1.6624E+05  0.000E+00  0.000E+00  0.000E+00  3.32738E+01  1.627E-01  2.000E+01  2.000E+04 -1.840E-02
   1   17   28     3     7    1.6624E+05 -1.5647E+03   1.6781E+05  0.000E+00  0.000E+00  0.000E+00  3.23855E+01  1.633E-01  2.000E+01  2.000E+04 -7.823E-02
   1   18   29     3     8    1.6781E+05 -2.9253E+03   1.7073E+05  0.000E+00  0.000E+00  0.000E+00  3.14979E+01  1.646E-01  2.000E+01  2.000E+04 -1.463E-01
   1   18   30     3     9    1.7073E+05 -3.1921E+03   1.7392E+05  0.000E+00  0.000E+00  0.000E+00  3.06108E+01  1.664E-01  2.000E+01  2.000E+04 -1.596E-01



1
              HEAD IN LAYER   1 AT END OF TIME STEP   1 IN STRESS PERIOD    8
  ---------------------------------------------------------------------------

          1      2      3      4      5      6      7      8      9     10
         11     12     13     14     15     16     17     18     19     20
         21     22     23     24     25     26     27     28     29     30
 .........................................................................
   1  ****** ****** ****** ****** ****** ****** ****** ****** ****** ******
      ****** ****** ****** ****** ****** ****** ****** ****** ****** ******
      ****** ****** ****** ****** ****** ****** ****** ****** ****** ******
   2  ****** ****** ****** ****** ****** ****** ****** ****** ****** ******
      ****** ****** ****** ****** ****** ****** ****** ****** ****** ******
      ****** ****** ****** ****** ****** ****** ****** ****** ****** ******
   3  ****** ****** ****** ****** ****** ****** ****** ****** ****** ******
      ****** ****** ****** ****** ****** ****** ****** ****** ****** ******
      ****** ****** ****** ****** ****** ****** ****** ****** ****** ******
   4  ****** ****** ****** ****** ****** ****** ****** ****** ****** ******
      ****** ****** ****** ****** ****** ****** ****** ****** ****** ******
      ****** ****** ****** ****** ****** ****** ****** ****** ****** ******
   5  ****** ****** ****** ****** ****** ****** ****** ****** ****** ******
      ****** ****** ****** ****** ****** ****** ****** ****** ****** ******
      ****** ****** ****** ****** ****** ****** ****** ****** ****** ******
   6  ****** ****** ****** ****** ****** ****** ****** ****** ****** ******
      ****** ****** ****** ****** ****** ****** ****** ****** ****** ******
      ****** ****** ****** ****** ****** ****** ****** ****** ****** ******
   7  ****** ****** ****** ****** ****** ****** ****** ****** ****** ******
      ****** ****** ****** ****** ****** ****** ****** ****** ****** ******
      ****** ****** ****** ****** ****** ****** ****** ****** ****** ******
   8  ****** ****** ****** ****** ****** ****** ****** ****** ****** ******
      ****** ****** ****** ****** ****** ****** ****** ****** ****** ******
      ****** ****** ****** ****** ****** ****** ****** ****** ****** ******
   9  ****** ****** ****** ****** ****** ****** ****** ****** ****** ******
      ****** ****** ****** ****** ****** ****** ****** ****** ****** ******
      ****** ****** ****** ****** ****** ****** ****** ****** ****** ******
  10  ****** ****** ****** ****** ****** ****** ****** ****** ****** ******
      ****** ****** ****** ****** ****** ****** ****** ****** ****** ******
      ****** ****** ****** ****** ****** ****** ****** ****** ****** ******
  11  ****** ****** ****** ****** ****** ****** ****** ****** ****** ******
      ****** ****** ****** ****** ****** ****** ****** ****** ****** ******
      ****** ****** ****** ****** ****** ****** ****** ****** ****** ******
  12  ****** ****** ****** ****** ****** ****** ****** ****** ****** ******
      ****** ****** ****** ****** ****** ****** ****** ****** ****** ******
      ****** ****** ****** ****** ****** ****** ****** ****** ****** ******
  13  ****** ****** ****** ****** ****** ****** ****** ****** ****** ******
      ****** ****** ****** ****** ****** ****** ****** ****** ****** ******
      ****** ****** ****** ****** ****** ****** ****** ****** ****** ******
  14  ****** ****** ****** ****** ****** ****** ****** ****** ****** ******
      ****** ****** ****** ****** ****** ****** ****** ****** ****** ******
      ****** ****** ****** ****** ****** ****** ****** ****** ****** ******
  15  ****** ****** ****** ****** ****** ****** ****** ****** ****** ******
      ****** ****** ****** ****** ****** ****** ****** ****** ****** ******
      ****** ****** ****** ****** ****** ****** ****** ****** ****** ******
  16  ****** ****** ****** ****** ****** ****** ****** ****** ****** ******
      ****** ****** ****** ****** ****** ****** ****** ****** ****** ******
      ****** ****** ****** ****** ****** ****** ****** ****** ****** ******
  17  ****** ****** ****** ****** ****** ****** ****** ****** ****** ******
      ****** ****** ****** ****** ****** ****** ****** ****** ****** ******
      ****** ****** ****** ****** ****** ****** ****** ****** ****** ******
  18  ****** ****** ****** ****** ****** ****** ****** ****** ****** ******
      ****** ****** ****** ****** ****** ****** ****** ****** ****** ******
      ****** ****** ****** ****** ****** ****** ****** ****** ****** ******
  19  ****** ****** ****** ****** ****** ****** ****** ****** ****** ******
      ****** ****** ****** ****** ****** ****** ****** ****** ****** ******
      ****** ****** ****** ****** ****** ****** ****** ****** ****** ******
  20  ****** ****** ****** ****** ****** ****** ****** ****** ****** ******
      ****** ****** ****** ****** ****** ****** ****** ****** ****** ******
      ****** ****** ****** ****** ****** ****** ****** ****** ****** ******
  21  ****** ****** ****** ****** ****** ****** ****** ****** ****** ******
      ****** ****** ****** ****** ****** ****** ****** ****** ****** ******
      ****** ****** ****** ****** ****** ****** ****** ****** ****** ******
  22  ****** ****** ****** ****** ****** ****** ****** ****** ****** ******
      ****** ****** ****** ****** ****** ****** ****** ****** ****** ******
      ****** ****** ****** ****** ****** ****** ****** ****** ****** ******
  23  ****** ****** ****** ****** ****** ****** ****** ****** ****** ******
      ****** ****** ****** ****** ****** ****** ****** ****** ****** ******
      ****** ****** ****** ****** ****** ****** ****** ****** ****** ******
  24  ****** ****** ****** ****** ****** ****** ****** ****** ****** ******
      ****** ****** ****** ****** ****** ****** ****** ****** ****** ******
      ****** ****** ****** ****** ****** ****** ****** ****** ****** ******
  25  ****** ****** ****** ****** ****** ****** ****** ****** ****** ******
      ****** ****** ****** ****** ****** ****** ****** ****** ****** ******
      ****** ****** ****** ****** ****** ****** ****** ****** ****** ******

 HEAD WILL BE SAVED ON UNIT   51 AT END OF TIME STEP    1, STRESS PERIOD    8
1
  VOLUMETRIC BUDGET FOR ENTIRE MODEL AT END OF TIME STEP    1, STRESS PERIOD   8
  ------------------------------------------------------------------------------

     CUMULATIVE VOLUMES      L**3       RATES FOR THIS TIME STEP      L**3/T
     ------------------                 ------------------------

           IN:                                      IN:
           ---                                      ---
             STORAGE =    34643802.4442               STORAGE =        1919.9457
       CONSTANT HEAD =    20281782.8084         CONSTANT HEAD =       34949.9334
               WELLS =           0.0000                 WELLS =           0.0000
            RECHARGE =    17608800.0000              RECHARGE =       27600.0000
      STREAM LEAKAGE =     7064031.9576        STREAM LEAKAGE =       12849.2873

            TOTAL IN =    79598417.2101              TOTAL IN =       77319.1664

          OUT:                                     OUT:
          ----                                     ----
             STORAGE =      860679.4783               STORAGE =        1538.6451
       CONSTANT HEAD =           0.0000         CONSTANT HEAD =           0.0000
               WELLS =    28474714.3525                 WELLS =       39006.4580
            RECHARGE =           0.0000              RECHARGE =           0.0000
      STREAM LEAKAGE =    50263025.2526        STREAM LEAKAGE =       36774.0555

           TOTAL OUT =    79598419.0834             TOTAL OUT =       77319.1586

            IN - OUT =          -1.8733              IN - OUT =       7.8573E-03

 PERCENT DISCREPANCY =          -0.00     PERCENT DISCREPANCY =           0.00






         TIME SUMMARY AT END OF TIME STEP    1 IN STRESS PERIOD    8
                    SECONDS     MINUTES      HOURS       DAYS        YEARS
                    -----------------------------------------------------------
   TIME STEP LENGTH 7.86240E+06 1.31040E+05  2184.0      91.000     0.24914    
 STRESS PERIOD TIME 7.86240E+06 1.31040E+05  2184.0      91.000     0.24914    
         TOTAL TIME 6.30720E+07 1.05120E+06  17520.      730.00      1.9986    
1
1
                            STRESS PERIOD NO.    9, LENGTH =   92.00000    
                            -----------------------------------------------

                              NUMBER OF TIME STEPS =     1

                               MULTIPLIER FOR DELT =     1.500

                            INITIAL TIME STEP SIZE =   92.00000    

 WELL NO.  LAYER   ROW   COL   STRESS RATE         
 --------------------------------------------------
      1      1     12     22      -9012.    
      2      1     10     16      -9566.    
      3      1      6     24      -8299.    
      4      1      6     17     -0.1213E+05

      4 WELLS

                 RECHARGE =  5.000000E-04

 REUSING STREAM SEGMENT DATA FROM LAST STRESS PERIOD
 
 SOLVING FOR HEAD 


     6 CALLS TO PCG ROUTINE FOR TIME STEP   1 IN STRESS PERIOD    9
    23 TOTAL ITERATIONS

 OUTPUT CONTROL FOR STRESS PERIOD    9   TIME STEP    1
    SAVE BUDGET
    SAVE HEAD FOR ALL LAYERS
    PRINT HEAD FOR ALL LAYERS
 UBDSV2 SAVING "STREAMFLOW OUT  " ON UNIT  50 AT TIME STEP  1, STRESS PERIOD   9



 STREAM LISTING     PERIOD      9   STEP        1

 LAYER ROW COL. STREAM  RCH.  FLOW INTO     FLOW TO   FLOW OUT OF   OVRLND.     DIRECT     STREAM       STREAM     STREAM     STREAM   STREAMBED  STREAMBED
                SEG.NO.  NO.  STRM. RCH.    AQUIFER    STRM. RCH.    RUNOFF     PRECIP       ET          HEAD       DEPTH      WIDTH   CONDCTNC.   GRADIENT

   1   13    1     1     1    1.0000E+05 -1.3980E+03   1.0140E+05  0.000E+00  0.000E+00  0.000E+00  4.84066E+01  1.453E-01  2.000E+01  2.000E+04 -6.990E-02
   1   13    2     1     2    1.0140E+05 -2.3117E+03   1.0371E+05  0.000E+00  0.000E+00  0.000E+00  4.79309E+01  1.469E-01  2.000E+01  2.000E+04 -1.156E-01
   1   14    3     1     3    1.0371E+05 -3.7887E+02   1.0409E+05  0.000E+00  0.000E+00  0.000E+00  4.74548E+01  1.480E-01  2.000E+01  2.000E+04 -1.894E-02
   1   15    4     1     4    1.0409E+05 -3.5846E+02   1.0445E+05  0.000E+00  0.000E+00  0.000E+00  4.69779E+01  1.483E-01  2.000E+01  2.000E+04 -1.792E-02
   1   16    5     1     5    1.0445E+05 -1.4716E+03   1.0592E+05  0.000E+00  0.000E+00  0.000E+00  4.65014E+01  1.491E-01  2.000E+01  2.000E+04 -7.358E-02
   1   16    6     1     6    1.0592E+05 -9.3164E+02   1.0685E+05  0.000E+00  0.000E+00  0.000E+00  4.60251E+01  1.501E-01  2.000E+01  2.000E+04 -4.658E-02
   1   16    7     1     7    1.0685E+05 -9.1671E+02   1.0777E+05  0.000E+00  0.000E+00  0.000E+00  4.55486E+01  1.509E-01  2.000E+01  2.000E+04 -4.584E-02
   1   16    8     1     8    1.0777E+05 -9.1524E+02   1.0868E+05  0.000E+00  0.000E+00  0.000E+00  4.50721E+01  1.517E-01  2.000E+01  2.000E+04 -4.576E-02
   1   16    9     1     9    1.0868E+05 -9.1157E+02   1.0959E+05  0.000E+00  0.000E+00  0.000E+00  4.45956E+01  1.524E-01  2.000E+01  2.000E+04 -4.558E-02
   1   16   10     1    10    1.0959E+05 -9.0679E+02   1.1050E+05  0.000E+00  0.000E+00  0.000E+00  4.41191E+01  1.532E-01  2.000E+01  2.000E+04 -4.534E-02
   1   16   11     1    11    1.1050E+05 -9.1869E+02   1.1142E+05  0.000E+00  0.000E+00  0.000E+00  4.36426E+01  1.540E-01  2.000E+01  2.000E+04 -4.593E-02
   1   16   12     1    12    1.1142E+05 -1.4698E+03   1.1289E+05  0.000E+00  0.000E+00  0.000E+00  4.31663E+01  1.550E-01  2.000E+01  2.000E+04 -7.349E-02
   1   15   13     1    13    1.1289E+05 -1.0010E+03   1.1389E+05  0.000E+00  0.000E+00  0.000E+00  4.26901E+01  1.560E-01  2.000E+01  2.000E+04 -5.005E-02
   1   14   14     1    14    1.1389E+05 -8.2476E+02   1.1471E+05  0.000E+00  0.000E+00  0.000E+00  4.22136E+01  1.567E-01  2.000E+01  2.000E+04 -4.124E-02
   1   13   15     1    15    1.1471E+05 -3.7441E+02   1.1509E+05  0.000E+00  0.000E+00  0.000E+00  4.17368E+01  1.572E-01  2.000E+01  2.000E+04 -1.872E-02
   1   12   16     1    16    1.1509E+05  1.3124E+03   1.1378E+05  0.000E+00  0.000E+00  0.000E+00  4.12591E+01  1.568E-01  2.000E+01  2.000E+04  6.562E-02
   1   12   17     1    17    1.1378E+05  6.5241E+02   1.1312E+05  0.000E+00  0.000E+00  0.000E+00  4.07810E+01  1.560E-01  2.000E+01  2.000E+04  3.262E-02
   1   12   18     1    18    1.1312E+05  3.1808E+02   1.1281E+05  0.000E+00  0.000E+00  0.000E+00  4.03034E+01  1.556E-01  2.000E+01  2.000E+04  1.590E-02
   1   12   19     1    19    1.1281E+05  7.4044E+02   1.1207E+05  0.000E+00  0.000E+00  0.000E+00  3.98256E+01  1.552E-01  2.000E+01  2.000E+04  3.702E-02
   1   13   20     1    20    1.1207E+05  4.8800E+02   1.1158E+05  0.000E+00  0.000E+00  0.000E+00  3.93479E+01  1.547E-01  2.000E+01  2.000E+04  2.440E-02
   1   14   21     1    21    1.1158E+05 -4.8637E+02   1.1206E+05  0.000E+00  0.000E+00  0.000E+00  3.88706E+01  1.547E-01  2.000E+01  2.000E+04 -2.432E-02
   1   14   22     1    22    1.1206E+05  5.5026E+03   1.0656E+05  0.000E+00  0.000E+00  0.000E+00  3.83912E+01  1.526E-01  2.000E+01  2.000E+04  2.751E-01
   1    9   30     2     1    5.0000E+04  7.8574E+01   4.9921E+04  0.000E+00  0.000E+00  0.000E+00  4.02408E+01  1.158E-01  2.000E+01  2.000E+04  3.929E-03
   1    9   29     2     2    4.9921E+04 -1.4210E+02   5.0064E+04  0.000E+00  0.000E+00  0.000E+00  3.99909E+01  1.159E-01  2.000E+01  2.000E+04 -7.105E-03
   1    9   28     2     3    5.0064E+04 -1.9378E+02   5.0257E+04  0.000E+00  0.000E+00  0.000E+00  3.97411E+01  1.161E-01  2.000E+01  2.000E+04 -9.689E-03
   1    9   27     2     4    5.0257E+04 -2.1566E+02   5.0473E+04  0.000E+00  0.000E+00  0.000E+00  3.94914E+01  1.164E-01  2.000E+01  2.000E+04 -1.078E-02
   1   10   26     2     5    5.0473E+04  2.9412E+02   5.0179E+04  0.000E+00  0.000E+00  0.000E+00  3.92413E+01  1.163E-01  2.000E+01  2.000E+04  1.471E-02
   1   11   25     2     6    5.0179E+04  5.6847E+02   4.9610E+04  0.000E+00  0.000E+00  0.000E+00  3.89907E+01  1.157E-01  2.000E+01  2.000E+04  2.842E-02
   1   12   24     2     7    4.9610E+04  1.6763E+03   4.7934E+04  0.000E+00  0.000E+00  0.000E+00  3.87392E+01  1.142E-01  2.000E+01  2.000E+04  8.382E-02
   1   13   23     2     8    4.7934E+04  5.0685E+02   4.7427E+04  0.000E+00  0.000E+00  0.000E+00  3.84876E+01  1.126E-01  2.000E+01  2.000E+04  2.534E-02
   1   14   22     2     9    4.7427E+04  2.3890E+03   4.5038E+04  0.000E+00  0.000E+00  0.000E+00  3.82355E+01  1.105E-01  2.000E+01  2.000E+04  1.195E-01
   1   14   22     3     1    1.5160E+05 -8.0804E+03   1.5968E+05  0.000E+00  0.000E+00  0.000E+00  3.77121E+01  1.565E-01  2.000E+01  2.000E+04 -4.040E-01
   1   15   23     3     2    1.5968E+05 -4.9904E+02   1.6018E+05  0.000E+00  0.000E+00  0.000E+00  3.68258E+01  1.591E-01  2.000E+01  2.000E+04 -2.495E-02
   1   15   24     3     3    1.6018E+05 -2.4329E+02   1.6042E+05  0.000E+00  0.000E+00  0.000E+00  3.59371E+01  1.593E-01  2.000E+01  2.000E+04 -1.216E-02
   1   15   25     3     4    1.6042E+05 -2.3471E+02   1.6066E+05  0.000E+00  0.000E+00  0.000E+00  3.50483E+01  1.595E-01  2.000E+01  2.000E+04 -1.174E-02
   1   15   26     3     5    1.6066E+05 -2.8644E+02   1.6094E+05  0.000E+00  0.000E+00  0.000E+00  3.41596E+01  1.596E-01  2.000E+01  2.000E+04 -1.432E-02
   1   16   27     3     6    1.6094E+05 -3.1235E+02   1.6126E+05  0.000E+00  0.000E+00  0.000E+00  3.32709E+01  1.598E-01  2.000E+01  2.000E+04 -1.562E-02
   1   17   28     3     7    1.6126E+05 -1.4122E+03   1.6267E+05  0.000E+00  0.000E+00  0.000E+00  3.23825E+01  1.603E-01  2.000E+01  2.000E+04 -7.061E-02
   1   18   29     3     8    1.6267E+05 -2.7515E+03   1.6542E+05  0.000E+00  0.000E+00  0.000E+00  3.14949E+01  1.615E-01  2.000E+01  2.000E+04 -1.376E-01
   1   18   30     3     9    1.6542E+05 -3.0612E+03   1.6848E+05  0.000E+00  0.000E+00  0.000E+00  3.06077E+01  1.632E-01  2.000E+01  2.000E+04 -1.531E-01



1
              HEAD IN LAYER   1 AT END OF TIME STEP   1 IN STRESS PERIOD    9
  ---------------------------------------------------------------------------

          1      2      3      4      5      6      7      8      9     10
         11     12     13     14     15     16     17     18     19     20
         21     22     23     24     25     26     27     28     29     30
 .........................................................................
   1  ****** ****** ****** ****** ****** ****** ****** ****** ****** ******
      ****** ****** ****** ****** ****** ****** ****** ****** ****** ******
      ****** ****** ****** ****** ****** ****** ****** ****** ****** ******
   2  ****** ****** ****** ****** ****** ****** ****** ****** ****** ******
      ****** ****** ****** ****** ****** ****** ****** ****** ****** ******
      ****** ****** ****** ****** ****** ****** ****** ****** ****** ******
   3  ****** ****** ****** ****** ****** ****** ****** ****** ****** ******
      ****** ****** ****** ****** ****** ****** ****** ****** ****** ******
      ****** ****** ****** ****** ****** ****** ****** ****** ****** ******
   4  ****** ****** ****** ****** ****** ****** ****** ****** ****** ******
      ****** ****** ****** ****** ****** ****** ****** ****** ****** ******
      ****** ****** ****** ****** ****** ****** ****** ****** ****** ******
   5  ****** ****** ****** ****** ****** ****** ****** ****** ****** ******
      ****** ****** ****** ****** ****** ****** ****** ****** ****** ******
      ****** ****** ****** ****** ****** ****** ****** ****** ****** ******
   6  ****** ****** ****** ****** ****** ****** ****** ****** ****** ******
      ****** ****** ****** ****** ****** ****** ****** ****** ****** ******
      ****** ****** ****** ****** ****** ****** ****** ****** ****** ******
   7  ****** ****** ****** ****** ****** ****** ****** ****** ****** ******
      ****** ****** ****** ****** ****** ****** ****** ****** ****** ******
      ****** ****** ****** ****** ****** ****** ****** ****** ****** ******
   8  ****** ****** ****** ****** ****** ****** ****** ****** ****** ******
      ****** ****** ****** ****** ****** ****** ****** ****** ****** ******
      ****** ****** ****** ****** ****** ****** ****** ****** ****** ******
   9  ****** ****** ****** ****** ****** ****** ****** ****** ****** ******
      ****** ****** ****** ****** ****** ****** ****** ****** ****** ******
      ****** ****** ****** ****** ****** ****** ****** ****** ****** ******
  10  ****** ****** ****** ****** ****** ****** ****** ****** ****** ******
      ****** ****** ****** ****** ****** ****** ****** ****** ****** ******
      ****** ****** ****** ****** ****** ****** ****** ****** ****** ******
  11  ****** ****** ****** ****** ****** ****** ****** ****** ****** ******
      ****** ****** ****** ****** ****** ****** ****** ****** ****** ******
      ****** ****** ****** ****** ****** ****** ****** ****** ****** ******
  12  ****** ****** ****** ****** ****** ****** ****** ****** ****** ******
      ****** ****** ****** ****** ****** ****** ****** ****** ****** ******
      ****** ****** ****** ****** ****** ****** ****** ****** ****** ******
  13  ****** ****** ****** ****** ****** ****** ****** ****** ****** ******
      ****** ****** ****** ****** ****** ****** ****** ****** ****** ******
      ****** ****** ****** ****** ****** ****** ****** ****** ****** ******
  14  ****** ****** ****** ****** ****** ****** ****** ****** ****** ******
      ****** ****** ****** ****** ****** ****** ****** ****** ****** ******
      ****** ****** ****** ****** ****** ****** ****** ****** ****** ******
  15  ****** ****** ****** ****** ****** ****** ****** ****** ****** ******
      ****** ****** ****** ****** ****** ****** ****** ****** ****** ******
      ****** ****** ****** ****** ****** ****** ****** ****** ****** ******
  16  ****** ****** ****** ****** ****** ****** ****** ****** ****** ******
      ****** ****** ****** ****** ****** ****** ****** ****** ****** ******
      ****** ****** ****** ****** ****** ****** ****** ****** ****** ******
  17  ****** ****** ****** ****** ****** ****** ****** ****** ****** ******
      ****** ****** ****** ****** ****** ****** ****** ****** ****** ******
      ****** ****** ****** ****** ****** ****** ****** ****** ****** ******
  18  ****** ****** ****** ****** ****** ****** ****** ****** ****** ******
      ****** ****** ****** ****** ****** ****** ****** ****** ****** ******
      ****** ****** ****** ****** ****** ****** ****** ****** ****** ******
  19  ****** ****** ****** ****** ****** ****** ****** ****** ****** ******
      ****** ****** ****** ****** ****** ****** ****** ****** ****** ******
      ****** ****** ****** ****** ****** ****** ****** ****** ****** ******
  20  ****** ****** ****** ****** ****** ****** ****** ****** ****** ******
      ****** ****** ****** ****** ****** ****** ****** ****** ****** ******
      ****** ****** ****** ****** ****** ****** ****** ****** ****** ******
  21  ****** ****** ****** ****** ****** ****** ****** ****** ****** ******
      ****** ****** ****** ****** ****** ****** ****** ****** ****** ******
      ****** ****** ****** ****** ****** ****** ****** ****** ****** ******
  22  ****** ****** ****** ****** ****** ****** ****** ****** ****** ******
      ****** ****** ****** ****** ****** ****** ****** ****** ****** ******
      ****** ****** ****** ****** ****** ****** ****** ****** ****** ******
  23  ****** ****** ****** ****** ****** ****** ****** ****** ****** ******
      ****** ****** ****** ****** ****** ****** ****** ****** ****** ******
      ****** ****** ****** ****** ****** ****** ****** ****** ****** ******
  24  ****** ****** ****** ****** ****** ****** ****** ****** ****** ******
      ****** ****** ****** ****** ****** ****** ****** ****** ****** ******
      ****** ****** ****** ****** ****** ****** ****** ****** ****** ******
  25  ****** ****** ****** ****** ****** ****** ****** ****** ****** ******
      ****** ****** ****** ****** ****** ****** ****** ****** ****** ******
      ****** ****** ****** ****** ****** ****** ****** ****** ****** ******

 HEAD WILL BE SAVED ON UNIT   51 AT END OF TIME STEP    1, STRESS PERIOD    9
1
  VOLUMETRIC BUDGET FOR ENTIRE MODEL AT END OF TIME STEP    1, STRESS PERIOD   9
  ------------------------------------------------------------------------------

     CUMULATIVE VOLUMES      L**3       RATES FOR THIS TIME STEP      L**3/T
     ------------------                 ------------------------

           IN:                                      IN:
           ---                                      ---
             STORAGE =    35336833.0630               STORAGE =        7532.9415
       CONSTANT HEAD =    23607980.0145         CONSTANT HEAD =       36154.3175
               WELLS =           0.0000                 WELLS =           0.0000
            RECHARGE =    18878400.0000              RECHARGE =       13800.0000
      STREAM LEAKAGE =     8400545.3469        STREAM LEAKAGE =       14527.3194

            TOTAL IN =    86223758.4244              TOTAL IN =       72014.5784

          OUT:                                     OUT:
          ----                                     ----
             STORAGE =      860679.4783               STORAGE =           0.0000
       CONSTANT HEAD =           0.0000         CONSTANT HEAD =           0.0000
               WELLS =    32063308.4901                 WELLS =       39006.4580
            RECHARGE =           0.0000              RECHARGE =           0.0000
      STREAM LEAKAGE =    53299772.4039        STREAM LEAKAGE =       33008.1212

           TOTAL OUT =    86223760.3723             TOTAL OUT =       72014.5792

            IN - OUT =          -1.9479              IN - OUT =      -8.1055E-04

 PERCENT DISCREPANCY =          -0.00     PERCENT DISCREPANCY =          -0.00






         TIME SUMMARY AT END OF TIME STEP    1 IN STRESS PERIOD    9
                    SECONDS     MINUTES      HOURS       DAYS        YEARS
                    -----------------------------------------------------------
   TIME STEP LENGTH 7.94880E+06 1.32480E+05  2208.0      92.000     0.25188    
 STRESS PERIOD TIME 7.94880E+06 1.32480E+05  2208.0      92.000     0.25188    
         TOTAL TIME 7.10208E+07 1.18368E+06  19728.      822.00      2.2505    
1
1
                            STRESS PERIOD NO.   10, LENGTH =   91.00000    
                            -----------------------------------------------

                              NUMBER OF TIME STEPS =     1

                               MULTIPLIER FOR DELT =     1.500

                            INITIAL TIME STEP SIZE =   91.00000    

 WELL NO.  LAYER   ROW   COL   STRESS RATE         
 --------------------------------------------------
      1      1     12     22      -9012.    
      2      1     10     16      -9566.    
      3      1      6     24      -8299.    
      4      1      6     17     -0.1213E+05

      4 WELLS

                 RECHARGE =  2.000000E-03

 REUSING STREAM SEGMENT DATA FROM LAST STRESS PERIOD
 
 SOLVING FOR HEAD 


     7 CALLS TO PCG ROUTINE FOR TIME STEP   1 IN STRESS PERIOD   10
    26 TOTAL ITERATIONS

 OUTPUT CONTROL FOR STRESS PERIOD   10   TIME STEP    1
    SAVE BUDGET
    SAVE HEAD FOR ALL LAYERS
    PRINT HEAD FOR ALL LAYERS
 UBDSV2 SAVING "STREAMFLOW OUT  " ON UNIT  50 AT TIME STEP  1, STRESS PERIOD  10



 STREAM LISTING     PERIOD     10   STEP        1

 LAYER ROW COL. STREAM  RCH.  FLOW INTO     FLOW TO   FLOW OUT OF   OVRLND.     DIRECT     STREAM       STREAM     STREAM     STREAM   STREAMBED  STREAMBED
                SEG.NO.  NO.  STRM. RCH.    AQUIFER    STRM. RCH.    RUNOFF     PRECIP       ET          HEAD       DEPTH      WIDTH   CONDCTNC.   GRADIENT

   1   13    1     1     1    1.0000E+05 -1.8426E+03   1.0184E+05  0.000E+00  0.000E+00  0.000E+00  4.84068E+01  1.455E-01  2.000E+01  2.000E+04 -9.213E-02
   1   13    2     1     2    1.0184E+05 -2.8039E+03   1.0465E+05  0.000E+00  0.000E+00  0.000E+00  4.79315E+01  1.474E-01  2.000E+01  2.000E+04 -1.402E-01
   1   14    3     1     3    1.0465E+05 -5.6407E+02   1.0521E+05  0.000E+00  0.000E+00  0.000E+00  4.74557E+01  1.489E-01  2.000E+01  2.000E+04 -2.820E-02
   1   15    4     1     4    1.0521E+05 -5.5686E+02   1.0577E+05  0.000E+00  0.000E+00  0.000E+00  4.69789E+01  1.494E-01  2.000E+01  2.000E+04 -2.784E-02
   1   16    5     1     5    1.0577E+05 -2.0903E+03   1.0786E+05  0.000E+00  0.000E+00  0.000E+00  4.65028E+01  1.505E-01  2.000E+01  2.000E+04 -1.045E-01
   1   16    6     1     6    1.0786E+05 -1.2931E+03   1.0915E+05  0.000E+00  0.000E+00  0.000E+00  4.60269E+01  1.519E-01  2.000E+01  2.000E+04 -6.466E-02
   1   16    7     1     7    1.0915E+05 -1.2603E+03   1.1041E+05  0.000E+00  0.000E+00  0.000E+00  4.55507E+01  1.530E-01  2.000E+01  2.000E+04 -6.302E-02
   1   16    8     1     8    1.1041E+05 -1.2534E+03   1.1166E+05  0.000E+00  0.000E+00  0.000E+00  4.50745E+01  1.540E-01  2.000E+01  2.000E+04 -6.267E-02
   1   16    9     1     9    1.1166E+05 -1.2483E+03   1.1291E+05  0.000E+00  0.000E+00  0.000E+00  4.45983E+01  1.551E-01  2.000E+01  2.000E+04 -6.242E-02
   1   16   10     1    10    1.1291E+05 -1.2440E+03   1.1416E+05  0.000E+00  0.000E+00  0.000E+00  4.41220E+01  1.561E-01  2.000E+01  2.000E+04 -6.220E-02
   1   16   11     1    11    1.1416E+05 -1.2597E+03   1.1542E+05  0.000E+00  0.000E+00  0.000E+00  4.36458E+01  1.571E-01  2.000E+01  2.000E+04 -6.299E-02
   1   16   12     1    12    1.1542E+05 -2.0387E+03   1.1746E+05  0.000E+00  0.000E+00  0.000E+00  4.31698E+01  1.585E-01  2.000E+01  2.000E+04 -1.019E-01
   1   15   13     1    13    1.1746E+05 -1.5848E+03   1.1904E+05  0.000E+00  0.000E+00  0.000E+00  4.26940E+01  1.600E-01  2.000E+01  2.000E+04 -7.924E-02
   1   14   14     1    14    1.1904E+05 -1.4144E+03   1.2045E+05  0.000E+00  0.000E+00  0.000E+00  4.22180E+01  1.612E-01  2.000E+01  2.000E+04 -7.072E-02
   1   13   15     1    15    1.2045E+05 -9.5277E+02   1.2141E+05  0.000E+00  0.000E+00  0.000E+00  4.17417E+01  1.621E-01  2.000E+01  2.000E+04 -4.764E-02
   1   12   16     1    16    1.2141E+05  7.5781E+02   1.2065E+05  0.000E+00  0.000E+00  0.000E+00  4.12645E+01  1.622E-01  2.000E+01  2.000E+04  3.789E-02
   1   12   17     1    17    1.2065E+05  2.3053E+02   1.2042E+05  0.000E+00  0.000E+00  0.000E+00  4.07868E+01  1.618E-01  2.000E+01  2.000E+04  1.153E-02
   1   12   18     1    18    1.2042E+05 -1.0027E+02   1.2052E+05  0.000E+00  0.000E+00  0.000E+00  4.03095E+01  1.618E-01  2.000E+01  2.000E+04 -5.013E-03
   1   12   19     1    19    1.2052E+05  2.2565E+02   1.2029E+05  0.000E+00  0.000E+00  0.000E+00  3.98322E+01  1.617E-01  2.000E+01  2.000E+04  1.128E-02
   1   13   20     1    20    1.2029E+05 -3.2027E+01   1.2033E+05  0.000E+00  0.000E+00  0.000E+00  3.93548E+01  1.616E-01  2.000E+01  2.000E+04 -1.601E-03
   1   14   21     1    21    1.2033E+05 -1.0117E+03   1.2134E+05  0.000E+00  0.000E+00  0.000E+00  3.88780E+01  1.620E-01  2.000E+01  2.000E+04 -5.059E-02
   1   14   22     1    22    1.2134E+05  5.3745E+03   1.1596E+05  0.000E+00  0.000E+00  0.000E+00  3.83989E+01  1.603E-01  2.000E+01  2.000E+04  2.687E-01
   1    9   30     2     1    5.0000E+04 -3.3457E+02   5.0335E+04  0.000E+00  0.000E+00  0.000E+00  4.02411E+01  1.161E-01  2.000E+01  2.000E+04 -1.673E-02
   1    9   29     2     2    5.0335E+04 -5.5287E+02   5.0887E+04  0.000E+00  0.000E+00  0.000E+00  3.99917E+01  1.167E-01  2.000E+01  2.000E+04 -2.764E-02
   1    9   28     2     3    5.0887E+04 -6.0353E+02   5.1491E+04  0.000E+00  0.000E+00  0.000E+00  3.97425E+01  1.175E-01  2.000E+01  2.000E+04 -3.018E-02
   1    9   27     2     4    5.1491E+04 -7.6576E+02   5.2257E+04  0.000E+00  0.000E+00  0.000E+00  3.94935E+01  1.185E-01  2.000E+01  2.000E+04 -3.829E-02
   1   10   26     2     5    5.2257E+04 -2.5650E+02   5.2513E+04  0.000E+00  0.000E+00  0.000E+00  3.92442E+01  1.192E-01  2.000E+01  2.000E+04 -1.282E-02
   1   11   25     2     6    5.2513E+04  4.2204E+01   5.2471E+04  0.000E+00  0.000E+00  0.000E+00  3.89943E+01  1.193E-01  2.000E+01  2.000E+04  2.110E-03
   1   12   24     2     7    5.2471E+04  1.2003E+03   5.1271E+04  0.000E+00  0.000E+00  0.000E+00  3.87434E+01  1.184E-01  2.000E+01  2.000E+04  6.001E-02
   1   13   23     2     8    5.1271E+04  3.5851E+02   5.0912E+04  0.000E+00  0.000E+00  0.000E+00  3.84924E+01  1.174E-01  2.000E+01  2.000E+04  1.793E-02
   1   14   22     2     9    5.0912E+04  2.2081E+03   4.8704E+04  0.000E+00  0.000E+00  0.000E+00  3.82406E+01  1.156E-01  2.000E+01  2.000E+04  1.104E-01
   1   14   22     3     1    1.6467E+05 -8.2065E+03   1.7287E+05  0.000E+00  0.000E+00  0.000E+00  3.77199E+01  1.643E-01  2.000E+01  2.000E+04 -4.103E-01
   1   15   23     3     2    1.7287E+05 -6.6180E+02   1.7354E+05  0.000E+00  0.000E+00  0.000E+00  3.68336E+01  1.669E-01  2.000E+01  2.000E+04 -3.309E-02
   1   15   24     3     3    1.7354E+05 -3.8060E+02   1.7392E+05  0.000E+00  0.000E+00  0.000E+00  3.59450E+01  1.672E-01  2.000E+01  2.000E+04 -1.903E-02
   1   15   25     3     4    1.7392E+05 -3.7542E+02   1.7429E+05  0.000E+00  0.000E+00  0.000E+00  3.50563E+01  1.674E-01  2.000E+01  2.000E+04 -1.877E-02
   1   15   26     3     5    1.7429E+05 -4.4875E+02   1.7474E+05  0.000E+00  0.000E+00  0.000E+00  3.41676E+01  1.676E-01  2.000E+01  2.000E+04 -2.244E-02
   1   16   27     3     6    1.7474E+05 -4.9835E+02   1.7524E+05  0.000E+00  0.000E+00  0.000E+00  3.32790E+01  1.679E-01  2.000E+01  2.000E+04 -2.492E-02
   1   17   28     3     7    1.7524E+05 -1.9333E+03   1.7717E+05  0.000E+00  0.000E+00  0.000E+00  3.23908E+01  1.686E-01  2.000E+01  2.000E+04 -9.667E-02
   1   18   29     3     8    1.7717E+05 -3.3041E+03   1.8048E+05  0.000E+00  0.000E+00  0.000E+00  3.15035E+01  1.701E-01  2.000E+01  2.000E+04 -1.652E-01
   1   18   30     3     9    1.8048E+05 -3.4872E+03   1.8396E+05  0.000E+00  0.000E+00  0.000E+00  3.06165E+01  1.721E-01  2.000E+01  2.000E+04 -1.744E-01



1
              HEAD IN LAYER   1 AT END OF TIME STEP   1 IN STRESS PERIOD   10
  ---------------------------------------------------------------------------

          1      2      3      4      5      6      7      8      9     10
         11     12     13     14     15     16     17     18     19     20
         21     22     23     24     25     26     27     28     29     30
 .........................................................................
   1  ****** ****** ****** ****** ****** ****** ****** ****** ****** ******
      ****** ****** ****** ****** ****** ****** ****** ****** ****** ******
      ****** ****** ****** ****** ****** ****** ****** ****** ****** ******
   2  ****** ****** ****** ****** ****** ****** ****** ****** ****** ******
      ****** ****** ****** ****** ****** ****** ****** ****** ****** ******
      ****** ****** ****** ****** ****** ****** ****** ****** ****** ******
   3  ****** ****** ****** ****** ****** ****** ****** ****** ****** ******
      ****** ****** ****** ****** ****** ****** ****** ****** ****** ******
      ****** ****** ****** ****** ****** ****** ****** ****** ****** ******
   4  ****** ****** ****** ****** ****** ****** ****** ****** ****** ******
      ****** ****** ****** ****** ****** ****** ****** ****** ****** ******
      ****** ****** ****** ****** ****** ****** ****** ****** ****** ******
   5  ****** ****** ****** ****** ****** ****** ****** ****** ****** ******
      ****** ****** ****** ****** ****** ****** ****** ****** ****** ******
      ****** ****** ****** ****** ****** ****** ****** ****** ****** ******
   6  ****** ****** ****** ****** ****** ****** ****** ****** ****** ******
      ****** ****** ****** ****** ****** ****** ****** ****** ****** ******
      ****** ****** ****** ****** ****** ****** ****** ****** ****** ******
   7  ****** ****** ****** ****** ****** ****** ****** ****** ****** ******
      ****** ****** ****** ****** ****** ****** ****** ****** ****** ******
      ****** ****** ****** ****** ****** ****** ****** ****** ****** ******
   8  ****** ****** ****** ****** ****** ****** ****** ****** ****** ******
      ****** ****** ****** ****** ****** ****** ****** ****** ****** ******
      ****** ****** ****** ****** ****** ****** ****** ****** ****** ******
   9  ****** ****** ****** ****** ****** ****** ****** ****** ****** ******
      ****** ****** ****** ****** ****** ****** ****** ****** ****** ******
      ****** ****** ****** ****** ****** ****** ****** ****** ****** ******
  10  ****** ****** ****** ****** ****** ****** ****** ****** ****** ******
      ****** ****** ****** ****** ****** ****** ****** ****** ****** ******
      ****** ****** ****** ****** ****** ****** ****** ****** ****** ******
  11  ****** ****** ****** ****** ****** ****** ****** ****** ****** ******
      ****** ****** ****** ****** ****** ****** ****** ****** ****** ******
      ****** ****** ****** ****** ****** ****** ****** ****** ****** ******
  12  ****** ****** ****** ****** ****** ****** ****** ****** ****** ******
      ****** ****** ****** ****** ****** ****** ****** ****** ****** ******
      ****** ****** ****** ****** ****** ****** ****** ****** ****** ******
  13  ****** ****** ****** ****** ****** ****** ****** ****** ****** ******
      ****** ****** ****** ****** ****** ****** ****** ****** ****** ******
      ****** ****** ****** ****** ****** ****** ****** ****** ****** ******
  14  ****** ****** ****** ****** ****** ****** ****** ****** ****** ******
      ****** ****** ****** ****** ****** ****** ****** ****** ****** ******
      ****** ****** ****** ****** ****** ****** ****** ****** ****** ******
  15  ****** ****** ****** ****** ****** ****** ****** ****** ****** ******
      ****** ****** ****** ****** ****** ****** ****** ****** ****** ******
      ****** ****** ****** ****** ****** ****** ****** ****** ****** ******
  16  ****** ****** ****** ****** ****** ****** ****** ****** ****** ******
      ****** ****** ****** ****** ****** ****** ****** ****** ****** ******
      ****** ****** ****** ****** ****** ****** ****** ****** ****** ******
  17  ****** ****** ****** ****** ****** ****** ****** ****** ****** ******
      ****** ****** ****** ****** ****** ****** ****** ****** ****** ******
      ****** ****** ****** ****** ****** ****** ****** ****** ****** ******
  18  ****** ****** ****** ****** ****** ****** ****** ****** ****** ******
      ****** ****** ****** ****** ****** ****** ****** ****** ****** ******
      ****** ****** ****** ****** ****** ****** ****** ****** ****** ******
  19  ****** ****** ****** ****** ****** ****** ****** ****** ****** ******
      ****** ****** ****** ****** ****** ****** ****** ****** ****** ******
      ****** ****** ****** ****** ****** ****** ****** ****** ****** ******
  20  ****** ****** ****** ****** ****** ****** ****** ****** ****** ******
      ****** ****** ****** ****** ****** ****** ****** ****** ****** ******
      ****** ****** ****** ****** ****** ****** ****** ****** ****** ******
  21  ****** ****** ****** ****** ****** ****** ****** ****** ****** ******
      ****** ****** ****** ****** ****** ****** ****** ****** ****** ******
      ****** ****** ****** ****** ****** ****** ****** ****** ****** ******
  22  ****** ****** ****** ****** ****** ****** ****** ****** ****** ******
      ****** ****** ****** ****** ****** ****** ****** ****** ****** ******
      ****** ****** ****** ****** ****** ****** ****** ****** ****** ******
  23  ****** ****** ****** ****** ****** ****** ****** ****** ****** ******
      ****** ****** ****** ****** ****** ****** ****** ****** ****** ******
      ****** ****** ****** ****** ****** ****** ****** ****** ****** ******
  24  ****** ****** ****** ****** ****** ****** ****** ****** ****** ******
      ****** ****** ****** ****** ****** ****** ****** ****** ****** ******
      ****** ****** ****** ****** ****** ****** ****** ****** ****** ******
  25  ****** ****** ****** ****** ****** ****** ****** ****** ****** ******
      ****** ****** ****** ****** ****** ****** ****** ****** ****** ******
      ****** ****** ****** ****** ****** ****** ****** ****** ****** ******

 HEAD WILL BE SAVED ON UNIT   51 AT END OF TIME STEP    1, STRESS PERIOD   10
1
  VOLUMETRIC BUDGET FOR ENTIRE MODEL AT END OF TIME STEP    1, STRESS PERIOD  10
  ------------------------------------------------------------------------------

     CUMULATIVE VOLUMES      L**3       RATES FOR THIS TIME STEP      L**3/T
     ------------------                 ------------------------

           IN:                                      IN:
           ---                                      ---
             STORAGE =    35336833.0630               STORAGE =           0.0000
       CONSTANT HEAD =    26631662.5652         CONSTANT HEAD =       33227.2808
               WELLS =           0.0000                 WELLS =           0.0000
            RECHARGE =    23901600.0000              RECHARGE =       55200.0000
      STREAM LEAKAGE =     9346714.3484        STREAM LEAKAGE =       10397.4616

            TOTAL IN =    95216809.9766              TOTAL IN =       98824.7423

          OUT:                                     OUT:
          ----                                     ----
             STORAGE =     2267319.0543               STORAGE =       15457.5778
       CONSTANT HEAD =           0.0000         CONSTANT HEAD =           0.0000
               WELLS =    35612896.1696                 WELLS =       39006.4580
            RECHARGE =           0.0000              RECHARGE =           0.0000
      STREAM LEAKAGE =    57336596.3465        STREAM LEAKAGE =       44360.7027

           TOTAL OUT =    95216811.5705             TOTAL OUT =       98824.7384

            IN - OUT =          -1.5939              IN - OUT =       3.8897E-03

 PERCENT DISCREPANCY =          -0.00     PERCENT DISCREPANCY =           0.00






         TIME SUMMARY AT END OF TIME STEP    1 IN STRESS PERIOD   10
                    SECONDS     MINUTES      HOURS       DAYS        YEARS
                    -----------------------------------------------------------
   TIME STEP LENGTH 7.86240E+06 1.31040E+05  2184.0      91.000     0.24914    
 STRESS PERIOD TIME 7.86240E+06 1.31040E+05  2184.0      91.000     0.24914    
         TOTAL TIME 7.88832E+07 1.31472E+06  21912.      913.00      2.4997    
1
1
                            STRESS PERIOD NO.   11, LENGTH =   91.00000    
                            -----------------------------------------------

                              NUMBER OF TIME STEPS =     1

                               MULTIPLIER FOR DELT =     1.500

                            INITIAL TIME STEP SIZE =   91.00000    

 WELL NO.  LAYER   ROW   COL   STRESS RATE         
 --------------------------------------------------
      1      1     12     22      -9012.    
      2      1     10     16      -9566.    
      3      1      6     24      -8299.    
      4      1      6     17     -0.1213E+05

      4 WELLS

                 RECHARGE =   0.00000    

 REUSING STREAM SEGMENT DATA FROM LAST STRESS PERIOD
 
 SOLVING FOR HEAD 


     7 CALLS TO PCG ROUTINE FOR TIME STEP   1 IN STRESS PERIOD   11
    26 TOTAL ITERATIONS

 OUTPUT CONTROL FOR STRESS PERIOD   11   TIME STEP    1
    SAVE BUDGET
    SAVE HEAD FOR ALL LAYERS
    PRINT HEAD FOR ALL LAYERS
 UBDSV2 SAVING "STREAMFLOW OUT  " ON UNIT  50 AT TIME STEP  1, STRESS PERIOD  11



 STREAM LISTING     PERIOD     11   STEP        1

 LAYER ROW COL. STREAM  RCH.  FLOW INTO     FLOW TO   FLOW OUT OF   OVRLND.     DIRECT     STREAM       STREAM     STREAM     STREAM   STREAMBED  STREAMBED
                SEG.NO.  NO.  STRM. RCH.    AQUIFER    STRM. RCH.    RUNOFF     PRECIP       ET          HEAD       DEPTH      WIDTH   CONDCTNC.   GRADIENT

   1   13    1     1     1    1.0000E+05 -1.2691E+03   1.0127E+05  0.000E+00  0.000E+00  0.000E+00  4.84066E+01  1.452E-01  2.000E+01  2.000E+04 -6.346E-02
   1   13    2     1     2    1.0127E+05 -2.1649E+03   1.0343E+05  0.000E+00  0.000E+00  0.000E+00  4.79308E+01  1.467E-01  2.000E+01  2.000E+04 -1.082E-01
   1   14    3     1     3    1.0343E+05 -3.3216E+02   1.0377E+05  0.000E+00  0.000E+00  0.000E+00  4.74546E+01  1.478E-01  2.000E+01  2.000E+04 -1.661E-02
   1   15    4     1     4    1.0377E+05 -3.1417E+02   1.0408E+05  0.000E+00  0.000E+00  0.000E+00  4.69776E+01  1.480E-01  2.000E+01  2.000E+04 -1.571E-02
   1   16    5     1     5    1.0408E+05 -1.4022E+03   1.0548E+05  0.000E+00  0.000E+00  0.000E+00  4.65010E+01  1.488E-01  2.000E+01  2.000E+04 -7.011E-02
   1   16    6     1     6    1.0548E+05 -8.7827E+02   1.0636E+05  0.000E+00  0.000E+00  0.000E+00  4.60247E+01  1.497E-01  2.000E+01  2.000E+04 -4.391E-02
   1   16    7     1     7    1.0636E+05 -8.6295E+02   1.0722E+05  0.000E+00  0.000E+00  0.000E+00  4.55482E+01  1.505E-01  2.000E+01  2.000E+04 -4.315E-02
   1   16    8     1     8    1.0722E+05 -8.6158E+02   1.0809E+05  0.000E+00  0.000E+00  0.000E+00  4.50717E+01  1.512E-01  2.000E+01  2.000E+04 -4.308E-02
   1   16    9     1     9    1.0809E+05 -8.5886E+02   1.0894E+05  0.000E+00  0.000E+00  0.000E+00  4.45951E+01  1.519E-01  2.000E+01  2.000E+04 -4.294E-02
   1   16   10     1    10    1.0894E+05 -8.5577E+02   1.0980E+05  0.000E+00  0.000E+00  0.000E+00  4.41185E+01  1.526E-01  2.000E+01  2.000E+04 -4.279E-02
   1   16   11     1    11    1.0980E+05 -8.6991E+02   1.1067E+05  0.000E+00  0.000E+00  0.000E+00  4.36420E+01  1.534E-01  2.000E+01  2.000E+04 -4.350E-02
   1   16   12     1    12    1.1067E+05 -1.3926E+03   1.1206E+05  0.000E+00  0.000E+00  0.000E+00  4.31657E+01  1.543E-01  2.000E+01  2.000E+04 -6.963E-02
   1   15   13     1    13    1.1206E+05 -8.9438E+02   1.1296E+05  0.000E+00  0.000E+00  0.000E+00  4.26893E+01  1.553E-01  2.000E+01  2.000E+04 -4.472E-02
   1   14   14     1    14    1.1296E+05 -7.0519E+02   1.1366E+05  0.000E+00  0.000E+00  0.000E+00  4.22127E+01  1.559E-01  2.000E+01  2.000E+04 -3.526E-02
   1   13   15     1    15    1.1366E+05 -2.4831E+02   1.1391E+05  0.000E+00  0.000E+00  0.000E+00  4.17359E+01  1.563E-01  2.000E+01  2.000E+04 -1.242E-02
   1   12   16     1    16    1.1391E+05  1.4403E+03   1.1247E+05  0.000E+00  0.000E+00  0.000E+00  4.12581E+01  1.558E-01  2.000E+01  2.000E+04  7.201E-02
   1   12   17     1    17    1.1247E+05  7.3975E+02   1.1173E+05  0.000E+00  0.000E+00  0.000E+00  4.07799E+01  1.549E-01  2.000E+01  2.000E+04  3.699E-02
   1   12   18     1    18    1.1173E+05  4.0083E+02   1.1133E+05  0.000E+00  0.000E+00  0.000E+00  4.03022E+01  1.544E-01  2.000E+01  2.000E+04  2.004E-02
   1   12   19     1    19    1.1133E+05  8.4075E+02   1.1049E+05  0.000E+00  0.000E+00  0.000E+00  3.98244E+01  1.539E-01  2.000E+01  2.000E+04  4.204E-02
   1   13   20     1    20    1.1049E+05  5.8103E+02   1.0991E+05  0.000E+00  0.000E+00  0.000E+00  3.93465E+01  1.533E-01  2.000E+01  2.000E+04  2.905E-02
   1   14   21     1    21    1.0991E+05 -4.1508E+02   1.1032E+05  0.000E+00  0.000E+00  0.000E+00  3.88692E+01  1.533E-01  2.000E+01  2.000E+04 -2.075E-02
   1   14   22     1    22    1.1032E+05  5.5221E+03   1.0480E+05  0.000E+00  0.000E+00  0.000E+00  3.83898E+01  1.511E-01  2.000E+01  2.000E+04  2.761E-01
   1    9   30     2     1    5.0000E+04  1.5413E+02   4.9846E+04  0.000E+00  0.000E+00  0.000E+00  4.02408E+01  1.158E-01  2.000E+01  2.000E+04  7.706E-03
   1    9   29     2     2    4.9846E+04 -6.7179E+01   4.9913E+04  0.000E+00  0.000E+00  0.000E+00  3.99907E+01  1.157E-01  2.000E+01  2.000E+04 -3.359E-03
   1    9   28     2     3    4.9913E+04 -1.1990E+02   5.0033E+04  0.000E+00  0.000E+00  0.000E+00  3.97408E+01  1.158E-01  2.000E+01  2.000E+04 -5.995E-03
   1    9   27     2     4    5.0033E+04 -1.2433E+02   5.0157E+04  0.000E+00  0.000E+00  0.000E+00  3.94910E+01  1.160E-01  2.000E+01  2.000E+04 -6.216E-03
   1   10   26     2     5    5.0157E+04  3.9906E+02   4.9758E+04  0.000E+00  0.000E+00  0.000E+00  3.92408E+01  1.158E-01  2.000E+01  2.000E+04  1.995E-02
   1   11   25     2     6    4.9758E+04  6.7384E+02   4.9084E+04  0.000E+00  0.000E+00  0.000E+00  3.89901E+01  1.151E-01  2.000E+01  2.000E+04  3.369E-02
   1   12   24     2     7    4.9084E+04  1.7748E+03   4.7310E+04  0.000E+00  0.000E+00  0.000E+00  3.87383E+01  1.133E-01  2.000E+01  2.000E+04  8.874E-02
   1   13   23     2     8    4.7310E+04  5.4453E+02   4.6765E+04  0.000E+00  0.000E+00  0.000E+00  3.84867E+01  1.117E-01  2.000E+01  2.000E+04  2.723E-02
   1   14   22     2     9    4.6765E+04  2.4184E+03   4.4347E+04  0.000E+00  0.000E+00  0.000E+00  3.82346E+01  1.096E-01  2.000E+01  2.000E+04  1.209E-01
   1   14   22     3     1    1.4915E+05 -8.0613E+03   1.5721E+05  0.000E+00  0.000E+00  0.000E+00  3.77106E+01  1.550E-01  2.000E+01  2.000E+04 -4.031E-01
   1   15   23     3     2    1.5721E+05 -4.6994E+02   1.5768E+05  0.000E+00  0.000E+00  0.000E+00  3.68243E+01  1.576E-01  2.000E+01  2.000E+04 -2.350E-02
   1   15   24     3     3    1.5768E+05 -2.1559E+02   1.5789E+05  0.000E+00  0.000E+00  0.000E+00  3.59356E+01  1.578E-01  2.000E+01  2.000E+04 -1.078E-02
   1   15   25     3     4    1.5789E+05 -2.0656E+02   1.5810E+05  0.000E+00  0.000E+00  0.000E+00  3.50468E+01  1.579E-01  2.000E+01  2.000E+04 -1.033E-02
   1   15   26     3     5    1.5810E+05 -2.5315E+02   1.5835E+05  0.000E+00  0.000E+00  0.000E+00  3.41581E+01  1.581E-01  2.000E+01  2.000E+04 -1.266E-02
   1   16   27     3     6    1.5835E+05 -2.7548E+02   1.5863E+05  0.000E+00  0.000E+00  0.000E+00  3.32693E+01  1.582E-01  2.000E+01  2.000E+04 -1.377E-02
   1   17   28     3     7    1.5863E+05 -1.3241E+03   1.5995E+05  0.000E+00  0.000E+00  0.000E+00  3.23809E+01  1.587E-01  2.000E+01  2.000E+04 -6.620E-02
   1   18   29     3     8    1.5995E+05 -2.6830E+03   1.6264E+05  0.000E+00  0.000E+00  0.000E+00  3.14932E+01  1.599E-01  2.000E+01  2.000E+04 -1.342E-01
   1   18   30     3     9    1.6264E+05 -2.9986E+03   1.6563E+05  0.000E+00  0.000E+00  0.000E+00  3.06060E+01  1.616E-01  2.000E+01  2.000E+04 -1.499E-01



1
              HEAD IN LAYER   1 AT END OF TIME STEP   1 IN STRESS PERIOD   11
  ---------------------------------------------------------------------------

          1      2      3      4      5      6      7      8      9     10
         11     12     13     14     15     16     17     18     19     20
         21     22     23     24     25     26     27     28     29     30
 .........................................................................
   1  ****** ****** ****** ****** ****** ****** ****** ****** ****** ******
      ****** ****** ****** ****** ****** ****** ****** ****** ****** ******
      ****** ****** ****** ****** ****** ****** ****** ****** ****** ******
   2  ****** ****** ****** ****** ****** ****** ****** ****** ****** ******
      ****** ****** ****** ****** ****** ****** ****** ****** ****** ******
      ****** ****** ****** ****** ****** ****** ****** ****** ****** ******
   3  ****** ****** ****** ****** ****** ****** ****** ****** ****** ******
      ****** ****** ****** ****** ****** ****** ****** ****** ****** ******
      ****** ****** ****** ****** ****** ****** ****** ****** ****** ******
   4  ****** ****** ****** ****** ****** ****** ****** ****** ****** ******
      ****** ****** ****** ****** ****** ****** ****** ****** ****** ******
      ****** ****** ****** ****** ****** ****** ****** ****** ****** ******
   5  ****** ****** ****** ****** ****** ****** ****** ****** ****** ******
      ****** ****** ****** ****** ****** ****** ****** ****** ****** ******
      ****** ****** ****** ****** ****** ****** ****** ****** ****** ******
   6  ****** ****** ****** ****** ****** ****** ****** ****** ****** ******
      ****** ****** ****** ****** ****** ****** ****** ****** ****** ******
      ****** ****** ****** ****** ****** ****** ****** ****** ****** ******
   7  ****** ****** ****** ****** ****** ****** ****** ****** ****** ******
      ****** ****** ****** ****** ****** ****** ****** ****** ****** ******
      ****** ****** ****** ****** ****** ****** ****** ****** ****** ******
   8  ****** ****** ****** ****** ****** ****** ****** ****** ****** ******
      ****** ****** ****** ****** ****** ****** ****** ****** ****** ******
      ****** ****** ****** ****** ****** ****** ****** ****** ****** ******
   9  ****** ****** ****** ****** ****** ****** ****** ****** ****** ******
      ****** ****** ****** ****** ****** ****** ****** ****** ****** ******
      ****** ****** ****** ****** ****** ****** ****** ****** ****** ******
  10  ****** ****** ****** ****** ****** ****** ****** ****** ****** ******
      ****** ****** ****** ****** ****** ****** ****** ****** ****** ******
      ****** ****** ****** ****** ****** ****** ****** ****** ****** ******
  11  ****** ****** ****** ****** ****** ****** ****** ****** ****** ******
      ****** ****** ****** ****** ****** ****** ****** ****** ****** ******
      ****** ****** ****** ****** ****** ****** ****** ****** ****** ******
  12  ****** ****** ****** ****** ****** ****** ****** ****** ****** ******
      ****** ****** ****** ****** ****** ****** ****** ****** ****** ******
      ****** ****** ****** ****** ****** ****** ****** ****** ****** ******
  13  ****** ****** ****** ****** ****** ****** ****** ****** ****** ******
      ****** ****** ****** ****** ****** ****** ****** ****** ****** ******
      ****** ****** ****** ****** ****** ****** ****** ****** ****** ******
  14  ****** ****** ****** ****** ****** ****** ****** ****** ****** ******
      ****** ****** ****** ****** ****** ****** ****** ****** ****** ******
      ****** ****** ****** ****** ****** ****** ****** ****** ****** ******
  15  ****** ****** ****** ****** ****** ****** ****** ****** ****** ******
      ****** ****** ****** ****** ****** ****** ****** ****** ****** ******
      ****** ****** ****** ****** ****** ****** ****** ****** ****** ******
  16  ****** ****** ****** ****** ****** ****** ****** ****** ****** ******
      ****** ****** ****** ****** ****** ****** ****** ****** ****** ******
      ****** ****** ****** ****** ****** ****** ****** ****** ****** ******
  17  ****** ****** ****** ****** ****** ****** ****** ****** ****** ******
      ****** ****** ****** ****** ****** ****** ****** ****** ****** ******
      ****** ****** ****** ****** ****** ****** ****** ****** ****** ******
  18  ****** ****** ****** ****** ****** ****** ****** ****** ****** ******
      ****** ****** ****** ****** ****** ****** ****** ****** ****** ******
      ****** ****** ****** ****** ****** ****** ****** ****** ****** ******
  19  ****** ****** ****** ****** ****** ****** ****** ****** ****** ******
      ****** ****** ****** ****** ****** ****** ****** ****** ****** ******
      ****** ****** ****** ****** ****** ****** ****** ****** ****** ******
  20  ****** ****** ****** ****** ****** ****** ****** ****** ****** ******
      ****** ****** ****** ****** ****** ****** ****** ****** ****** ******
      ****** ****** ****** ****** ****** ****** ****** ****** ****** ******
  21  ****** ****** ****** ****** ****** ****** ****** ****** ****** ******
      ****** ****** ****** ****** ****** ****** ****** ****** ****** ******
      ****** ****** ****** ****** ****** ****** ****** ****** ****** ******
  22  ****** ****** ****** ****** ****** ****** ****** ****** ****** ******
      ****** ****** ****** ****** ****** ****** ****** ****** ****** ******
      ****** ****** ****** ****** ****** ****** ****** ****** ****** ******
  23  ****** ****** ****** ****** ****** ****** ****** ****** ****** ******
      ****** ****** ****** ****** ****** ****** ****** ****** ****** ******
      ****** ****** ****** ****** ****** ****** ****** ****** ****** ******
  24  ****** ****** ****** ****** ****** ****** ****** ****** ****** ******
      ****** ****** ****** ****** ****** ****** ****** ****** ****** ******
      ****** ****** ****** ****** ****** ****** ****** ****** ****** ******
  25  ****** ****** ****** ****** ****** ****** ****** ****** ****** ******
      ****** ****** ****** ****** ****** ****** ****** ****** ****** ******
      ****** ****** ****** ****** ****** ****** ****** ****** ****** ******

 HEAD WILL BE SAVED ON UNIT   51 AT END OF TIME STEP    1, STRESS PERIOD   11
1
  VOLUMETRIC BUDGET FOR ENTIRE MODEL AT END OF TIME STEP    1, STRESS PERIOD  11
  ------------------------------------------------------------------------------

     CUMULATIVE VOLUMES      L**3       RATES FOR THIS TIME STEP      L**3/T
     ------------------                 ------------------------

           IN:                                      IN:
           ---                                      ---
             STORAGE =    36984818.7686               STORAGE =       18109.7330
       CONSTANT HEAD =    29956043.0479         CONSTANT HEAD =       36531.6537
               WELLS =           0.0000                 WELLS =           0.0000
            RECHARGE =    23901600.0000              RECHARGE =           0.0000
      STREAM LEAKAGE =    10756266.2393        STREAM LEAKAGE =       15489.5812

            TOTAL IN =   101598728.0557              TOTAL IN =       70130.9679

          OUT:                                     OUT:
          ----                                     ----
             STORAGE =     2267319.0543               STORAGE =           0.0000
       CONSTANT HEAD =           0.0000         CONSTANT HEAD =           0.0000
               WELLS =    39162483.8492                 WELLS =       39006.4580
            RECHARGE =           0.0000              RECHARGE =           0.0000
      STREAM LEAKAGE =    60168927.2024        STREAM LEAKAGE =       31124.5149

           TOTAL OUT =   101598730.1059             TOTAL OUT =       70130.9729

            IN - OUT =          -2.0502              IN - OUT =      -5.0138E-03

 PERCENT DISCREPANCY =          -0.00     PERCENT DISCREPANCY =          -0.00






         TIME SUMMARY AT END OF TIME STEP    1 IN STRESS PERIOD   11
                    SECONDS     MINUTES      HOURS       DAYS        YEARS
                    -----------------------------------------------------------
   TIME STEP LENGTH 7.86240E+06 1.31040E+05  2184.0      91.000     0.24914    
 STRESS PERIOD TIME 7.86240E+06 1.31040E+05  2184.0      91.000     0.24914    
         TOTAL TIME 8.67456E+07 1.44576E+06  24096.      1004.0      2.7488    
1
1
                            STRESS PERIOD NO.   12, LENGTH =   91.00000    
                            -----------------------------------------------

                              NUMBER OF TIME STEPS =     1

                               MULTIPLIER FOR DELT =     1.500

                            INITIAL TIME STEP SIZE =   91.00000    

 WELL NO.  LAYER   ROW   COL   STRESS RATE         
 --------------------------------------------------
      1      1     12     22      -9012.    
      2      1     10     16      -9566.    
      3      1      6     24      -8299.    
      4      1      6     17     -0.1213E+05

      4 WELLS

                 RECHARGE =  1.000000E-03

 REUSING STREAM SEGMENT DATA FROM LAST STRESS PERIOD
 
 SOLVING FOR HEAD 


     7 CALLS TO PCG ROUTINE FOR TIME STEP   1 IN STRESS PERIOD   12
    24 TOTAL ITERATIONS

 OUTPUT CONTROL FOR STRESS PERIOD   12   TIME STEP    1
    SAVE BUDGET
    SAVE HEAD FOR ALL LAYERS
    PRINT HEAD FOR ALL LAYERS
 UBDSV2 SAVING "STREAMFLOW OUT  " ON UNIT  50 AT TIME STEP  1, STRESS PERIOD  12



 STREAM LISTING     PERIOD     12   STEP        1

 LAYER ROW COL. STREAM  RCH.  FLOW INTO     FLOW TO   FLOW OUT OF   OVRLND.     DIRECT     STREAM       STREAM     STREAM     STREAM   STREAMBED  STREAMBED
                SEG.NO.  NO.  STRM. RCH.    AQUIFER    STRM. RCH.    RUNOFF     PRECIP       ET          HEAD       DEPTH      WIDTH   CONDCTNC.   GRADIENT

   1   13    1     1     1    1.0000E+05 -1.4091E+03   1.0141E+05  0.000E+00  0.000E+00  0.000E+00  4.84066E+01  1.453E-01  2.000E+01  2.000E+04 -7.046E-02
   1   13    2     1     2    1.0141E+05 -2.3150E+03   1.0372E+05  0.000E+00  0.000E+00  0.000E+00  4.79310E+01  1.469E-01  2.000E+01  2.000E+04 -1.158E-01
   1   14    3     1     3    1.0372E+05 -4.0995E+02   1.0413E+05  0.000E+00  0.000E+00  0.000E+00  4.74549E+01  1.480E-01  2.000E+01  2.000E+04 -2.050E-02
   1   15    4     1     4    1.0413E+05 -3.9592E+02   1.0453E+05  0.000E+00  0.000E+00  0.000E+00  4.69779E+01  1.484E-01  2.000E+01  2.000E+04 -1.980E-02
   1   16    5     1     5    1.0453E+05 -1.6118E+03   1.0614E+05  0.000E+00  0.000E+00  0.000E+00  4.65015E+01  1.492E-01  2.000E+01  2.000E+04 -8.059E-02
   1   16    6     1     6    1.0614E+05 -1.0082E+03   1.0715E+05  0.000E+00  0.000E+00  0.000E+00  4.60253E+01  1.503E-01  2.000E+01  2.000E+04 -5.041E-02
   1   16    7     1     7    1.0715E+05 -9.8779E+02   1.0814E+05  0.000E+00  0.000E+00  0.000E+00  4.55489E+01  1.512E-01  2.000E+01  2.000E+04 -4.939E-02
   1   16    8     1     8    1.0814E+05 -9.8539E+02   1.0912E+05  0.000E+00  0.000E+00  0.000E+00  4.50725E+01  1.520E-01  2.000E+01  2.000E+04 -4.927E-02
   1   16    9     1     9    1.0912E+05 -9.8317E+02   1.1011E+05  0.000E+00  0.000E+00  0.000E+00  4.45960E+01  1.528E-01  2.000E+01  2.000E+04 -4.916E-02
   1   16   10     1    10    1.1011E+05 -9.8154E+02   1.1109E+05  0.000E+00  0.000E+00  0.000E+00  4.41196E+01  1.537E-01  2.000E+01  2.000E+04 -4.908E-02
   1   16   11     1    11    1.1109E+05 -9.9808E+02   1.1209E+05  0.000E+00  0.000E+00  0.000E+00  4.36431E+01  1.545E-01  2.000E+01  2.000E+04 -4.990E-02
   1   16   12     1    12    1.1209E+05 -1.5939E+03   1.1368E+05  0.000E+00  0.000E+00  0.000E+00  4.31669E+01  1.556E-01  2.000E+01  2.000E+04 -7.970E-02
   1   15   13     1    13    1.1368E+05 -1.1099E+03   1.1479E+05  0.000E+00  0.000E+00  0.000E+00  4.26908E+01  1.567E-01  2.000E+01  2.000E+04 -5.550E-02
   1   14   14     1    14    1.1479E+05 -9.2066E+02   1.1571E+05  0.000E+00  0.000E+00  0.000E+00  4.22143E+01  1.575E-01  2.000E+01  2.000E+04 -4.603E-02
   1   13   15     1    15    1.1571E+05 -4.5591E+02   1.1617E+05  0.000E+00  0.000E+00  0.000E+00  4.17376E+01  1.581E-01  2.000E+01  2.000E+04 -2.280E-02
   1   12   16     1    16    1.1617E+05  1.2601E+03   1.1491E+05  0.000E+00  0.000E+00  0.000E+00  4.12600E+01  1.577E-01  2.000E+01  2.000E+04  6.301E-02
   1   12   17     1    17    1.1491E+05  5.8791E+02   1.1432E+05  0.000E+00  0.000E+00  0.000E+00  4.07820E+01  1.570E-01  2.000E+01  2.000E+04  2.940E-02
   1   12   18     1    18    1.1432E+05  2.4651E+02   1.1407E+05  0.000E+00  0.000E+00  0.000E+00  4.03044E+01  1.566E-01  2.000E+01  2.000E+04  1.233E-02
   1   12   19     1    19    1.1407E+05  6.4990E+02   1.1342E+05  0.000E+00  0.000E+00  0.000E+00  3.98267E+01  1.563E-01  2.000E+01  2.000E+04  3.250E-02
   1   13   20     1    20    1.1342E+05  3.7121E+02   1.1305E+05  0.000E+00  0.000E+00  0.000E+00  3.93490E+01  1.559E-01  2.000E+01  2.000E+04  1.856E-02
   1   14   21     1    21    1.1305E+05 -6.0921E+02   1.1366E+05  0.000E+00  0.000E+00  0.000E+00  3.88719E+01  1.560E-01  2.000E+01  2.000E+04 -3.046E-02
   1   14   22     1    22    1.1366E+05  5.4685E+03   1.0819E+05  0.000E+00  0.000E+00  0.000E+00  3.83926E+01  1.539E-01  2.000E+01  2.000E+04  2.734E-01
   1    9   30     2     1    5.0000E+04 -2.1899E+01   5.0022E+04  0.000E+00  0.000E+00  0.000E+00  4.02409E+01  1.159E-01  2.000E+01  2.000E+04 -1.095E-03
   1    9   29     2     2    5.0022E+04 -2.4113E+02   5.0263E+04  0.000E+00  0.000E+00  0.000E+00  3.99911E+01  1.161E-01  2.000E+01  2.000E+04 -1.206E-02
   1    9   28     2     3    5.0263E+04 -2.9024E+02   5.0553E+04  0.000E+00  0.000E+00  0.000E+00  3.97414E+01  1.164E-01  2.000E+01  2.000E+04 -1.451E-02
   1    9   27     2     4    5.0553E+04 -3.3240E+02   5.0886E+04  0.000E+00  0.000E+00  0.000E+00  3.94919E+01  1.169E-01  2.000E+01  2.000E+04 -1.662E-02
   1   10   26     2     5    5.0886E+04  1.7015E+02   5.0716E+04  0.000E+00  0.000E+00  0.000E+00  3.92420E+01  1.170E-01  2.000E+01  2.000E+04  8.507E-03
   1   11   25     2     6    5.0716E+04  4.4879E+02   5.0267E+04  0.000E+00  0.000E+00  0.000E+00  3.89915E+01  1.165E-01  2.000E+01  2.000E+04  2.244E-02
   1   12   24     2     7    5.0267E+04  1.5695E+03   4.8697E+04  0.000E+00  0.000E+00  0.000E+00  3.87401E+01  1.151E-01  2.000E+01  2.000E+04  7.847E-02
   1   13   23     2     8    4.8697E+04  4.6705E+02   4.8230E+04  0.000E+00  0.000E+00  0.000E+00  3.84887E+01  1.137E-01  2.000E+01  2.000E+04  2.335E-02
   1   14   22     2     9    4.8230E+04  2.3514E+03   4.5879E+04  0.000E+00  0.000E+00  0.000E+00  3.82367E+01  1.117E-01  2.000E+01  2.000E+04  1.176E-01
   1   14   22     3     1    1.5407E+05 -8.1116E+03   1.6218E+05  0.000E+00  0.000E+00  0.000E+00  3.77136E+01  1.580E-01  2.000E+01  2.000E+04 -4.056E-01
   1   15   23     3     2    1.6218E+05 -5.4204E+02   1.6272E+05  0.000E+00  0.000E+00  0.000E+00  3.68273E+01  1.606E-01  2.000E+01  2.000E+04 -2.710E-02
   1   15   24     3     3    1.6272E+05 -2.8071E+02   1.6300E+05  0.000E+00  0.000E+00  0.000E+00  3.59386E+01  1.608E-01  2.000E+01  2.000E+04 -1.404E-02
   1   15   25     3     4    1.6300E+05 -2.7295E+02   1.6328E+05  0.000E+00  0.000E+00  0.000E+00  3.50499E+01  1.610E-01  2.000E+01  2.000E+04 -1.365E-02
   1   15   26     3     5    1.6328E+05 -3.3064E+02   1.6361E+05  0.000E+00  0.000E+00  0.000E+00  3.41612E+01  1.612E-01  2.000E+01  2.000E+04 -1.653E-02
   1   16   27     3     6    1.6361E+05 -3.6230E+02   1.6397E+05  0.000E+00  0.000E+00  0.000E+00  3.32725E+01  1.614E-01  2.000E+01  2.000E+04 -1.811E-02
   1   17   28     3     7    1.6397E+05 -1.5449E+03   1.6552E+05  0.000E+00  0.000E+00  0.000E+00  3.23842E+01  1.620E-01  2.000E+01  2.000E+04 -7.725E-02
   1   18   29     3     8    1.6552E+05 -2.8840E+03   1.6840E+05  0.000E+00  0.000E+00  0.000E+00  3.14966E+01  1.633E-01  2.000E+01  2.000E+04 -1.442E-01
   1   18   30     3     9    1.6840E+05 -3.1669E+03   1.7157E+05  0.000E+00  0.000E+00  0.000E+00  3.06095E+01  1.650E-01  2.000E+01  2.000E+04 -1.583E-01



1
              HEAD IN LAYER   1 AT END OF TIME STEP   1 IN STRESS PERIOD   12
  ---------------------------------------------------------------------------

          1      2      3      4      5      6      7      8      9     10
         11     12     13     14     15     16     17     18     19     20
         21     22     23     24     25     26     27     28     29     30
 .........................................................................
   1  ****** ****** ****** ****** ****** ****** ****** ****** ****** ******
      ****** ****** ****** ****** ****** ****** ****** ****** ****** ******
      ****** ****** ****** ****** ****** ****** ****** ****** ****** ******
   2  ****** ****** ****** ****** ****** ****** ****** ****** ****** ******
      ****** ****** ****** ****** ****** ****** ****** ****** ****** ******
      ****** ****** ****** ****** ****** ****** ****** ****** ****** ******
   3  ****** ****** ****** ****** ****** ****** ****** ****** ****** ******
      ****** ****** ****** ****** ****** ****** ****** ****** ****** ******
      ****** ****** ****** ****** ****** ****** ****** ****** ****** ******
   4  ****** ****** ****** ****** ****** ****** ****** ****** ****** ******
      ****** ****** ****** ****** ****** ****** ****** ****** ****** ******
      ****** ****** ****** ****** ****** ****** ****** ****** ****** ******
   5  ****** ****** ****** ****** ****** ****** ****** ****** ****** ******
      ****** ****** ****** ****** ****** ****** ****** ****** ****** ******
      ****** ****** ****** ****** ****** ****** ****** ****** ****** ******
   6  ****** ****** ****** ****** ****** ****** ****** ****** ****** ******
      ****** ****** ****** ****** ****** ****** ****** ****** ****** ******
      ****** ****** ****** ****** ****** ****** ****** ****** ****** ******
   7  ****** ****** ****** ****** ****** ****** ****** ****** ****** ******
      ****** ****** ****** ****** ****** ****** ****** ****** ****** ******
      ****** ****** ****** ****** ****** ****** ****** ****** ****** ******
   8  ****** ****** ****** ****** ****** ****** ****** ****** ****** ******
      ****** ****** ****** ****** ****** ****** ****** ****** ****** ******
      ****** ****** ****** ****** ****** ****** ****** ****** ****** ******
   9  ****** ****** ****** ****** ****** ****** ****** ****** ****** ******
      ****** ****** ****** ****** ****** ****** ****** ****** ****** ******
      ****** ****** ****** ****** ****** ****** ****** ****** ****** ******
  10  ****** ****** ****** ****** ****** ****** ****** ****** ****** ******
      ****** ****** ****** ****** ****** ****** ****** ****** ****** ******
      ****** ****** ****** ****** ****** ****** ****** ****** ****** ******
  11  ****** ****** ****** ****** ****** ****** ****** ****** ****** ******
      ****** ****** ****** ****** ****** ****** ****** ****** ****** ******
      ****** ****** ****** ****** ****** ****** ****** ****** ****** ******
  12  ****** ****** ****** ****** ****** ****** ****** ****** ****** ******
      ****** ****** ****** ****** ****** ****** ****** ****** ****** ******
      ****** ****** ****** ****** ****** ****** ****** ****** ****** ******
  13  ****** ****** ****** ****** ****** ****** ****** ****** ****** ******
      ****** ****** ****** ****** ****** ****** ****** ****** ****** ******
      ****** ****** ****** ****** ****** ****** ****** ****** ****** ******
  14  ****** ****** ****** ****** ****** ****** ****** ****** ****** ******
      ****** ****** ****** ****** ****** ****** ****** ****** ****** ******
      ****** ****** ****** ****** ****** ****** ****** ****** ****** ******
  15  ****** ****** ****** ****** ****** ****** ****** ****** ****** ******
      ****** ****** ****** ****** ****** ****** ****** ****** ****** ******
      ****** ****** ****** ****** ****** ****** ****** ****** ****** ******
  16  ****** ****** ****** ****** ****** ****** ****** ****** ****** ******
      ****** ****** ****** ****** ****** ****** ****** ****** ****** ******
      ****** ****** ****** ****** ****** ****** ****** ****** ****** ******
  17  ****** ****** ****** ****** ****** ****** ****** ****** ****** ******
      ****** ****** ****** ****** ****** ****** ****** ****** ****** ******
      ****** ****** ****** ****** ****** ****** ****** ****** ****** ******
  18  ****** ****** ****** ****** ****** ****** ****** ****** ****** ******
      ****** ****** ****** ****** ****** ****** ****** ****** ****** ******
      ****** ****** ****** ****** ****** ****** ****** ****** ****** ******
  19  ****** ****** ****** ****** ****** ****** ****** ****** ****** ******
      ****** ****** ****** ****** ****** ****** ****** ****** ****** ******
      ****** ****** ****** ****** ****** ****** ****** ****** ****** ******
  20  ****** ****** ****** ****** ****** ****** ****** ****** ****** ******
      ****** ****** ****** ****** ****** ****** ****** ****** ****** ******
      ****** ****** ****** ****** ****** ****** ****** ****** ****** ******
  21  ****** ****** ****** ****** ****** ****** ****** ****** ****** ******
      ****** ****** ****** ****** ****** ****** ****** ****** ****** ******
      ****** ****** ****** ****** ****** ****** ****** ****** ****** ******
  22  ****** ****** ****** ****** ****** ****** ****** ****** ****** ******
      ****** ****** ****** ****** ****** ****** ****** ****** ****** ******
      ****** ****** ****** ****** ****** ****** ****** ****** ****** ******
  23  ****** ****** ****** ****** ****** ****** ****** ****** ****** ******
      ****** ****** ****** ****** ****** ****** ****** ****** ****** ******
      ****** ****** ****** ****** ****** ****** ****** ****** ****** ******
  24  ****** ****** ****** ****** ****** ****** ****** ****** ****** ******
      ****** ****** ****** ****** ****** ****** ****** ****** ****** ******
      ****** ****** ****** ****** ****** ****** ****** ****** ****** ******
  25  ****** ****** ****** ****** ****** ****** ****** ****** ****** ******
      ****** ****** ****** ****** ****** ****** ****** ****** ****** ******
      ****** ****** ****** ****** ****** ****** ****** ****** ****** ******

 HEAD WILL BE SAVED ON UNIT   51 AT END OF TIME STEP    1, STRESS PERIOD   12
1
  VOLUMETRIC BUDGET FOR ENTIRE MODEL AT END OF TIME STEP    1, STRESS PERIOD  12
  ------------------------------------------------------------------------------

     CUMULATIVE VOLUMES      L**3       RATES FOR THIS TIME STEP      L**3/T
     ------------------                 ------------------------

           IN:                                      IN:
           ---                                      ---
             STORAGE =    36988769.6852               STORAGE =          43.4167
       CONSTANT HEAD =    33218301.8843         CONSTANT HEAD =       35848.9982
               WELLS =           0.0000                 WELLS =           0.0000
            RECHARGE =    26413200.0000              RECHARGE =       27600.0000
      STREAM LEAKAGE =    11993051.3302        STREAM LEAKAGE =       13591.0450

            TOTAL IN =   108613322.8996              TOTAL IN =       77083.4598

          OUT:                                     OUT:
          ----                                     ----
             STORAGE =     2533011.1977               STORAGE =        2919.6939
       CONSTANT HEAD =           0.0000         CONSTANT HEAD =           0.0000
               WELLS =    42712071.5287                 WELLS =       39006.4580
            RECHARGE =           0.0000              RECHARGE =           0.0000
      STREAM LEAKAGE =    63368242.1412        STREAM LEAKAGE =       35157.3070

           TOTAL OUT =   108613324.8676             TOTAL OUT =       77083.4589

            IN - OUT =          -1.9680              IN - OUT =       9.0303E-04

 PERCENT DISCREPANCY =          -0.00     PERCENT DISCREPANCY =           0.00






         TIME SUMMARY AT END OF TIME STEP    1 IN STRESS PERIOD   12
                    SECONDS     MINUTES      HOURS       DAYS        YEARS
                    -----------------------------------------------------------
   TIME STEP LENGTH 7.86240E+06 1.31040E+05  2184.0      91.000     0.24914    
 STRESS PERIOD TIME 7.86240E+06 1.31040E+05  2184.0      91.000     0.24914    
         TOTAL TIME 9.46080E+07 1.57680E+06  26280.      1095.0      2.9979    
1

 Run end date and time (yyyy/mm/dd hh:mm:ss): 2018/10/14 22:17:46
 Elapsed run time:  0.073 Seconds

