                                  MODFLOW-2005     
      U.S. GEOLOGICAL SURVEY MODULAR FINITE-DIFFERENCE GROUND-WATER FLOW MODEL
                            VERSION 1.11.00 8/8/2013

 LIST FILE: supply2.lst
                         UNIT   10

 OPENING ..\data\supply.dis
 FILE TYPE:DIS   UNIT   11   STATUS:OLD    
 FORMAT:FORMATTED              ACCESS:SEQUENTIAL          

 OPENING ..\data\supply.ba6
 FILE TYPE:BAS6   UNIT   12   STATUS:OLD    
 FORMAT:FORMATTED              ACCESS:SEQUENTIAL          

 OPENING ..\data\supply_het.bc6
 FILE TYPE:BCF6   UNIT   13   STATUS:OLD    
 FORMAT:FORMATTED              ACCESS:SEQUENTIAL          

 OPENING ..\data\supply.rch
 FILE TYPE:RCH   UNIT   15   STATUS:OLD    
 FORMAT:FORMATTED              ACCESS:SEQUENTIAL          

 OPENING ..\data\supply2.sfr
 FILE TYPE:SFR   UNIT   16   STATUS:OLD    
 FORMAT:FORMATTED              ACCESS:SEQUENTIAL          

 OPENING ..\data\supply.oc
 FILE TYPE:OC   UNIT   17   STATUS:OLD    
 FORMAT:FORMATTED              ACCESS:SEQUENTIAL          

 OPENING ..\data\supply.pcg
 FILE TYPE:PCG   UNIT   18   STATUS:OLD    
 FORMAT:FORMATTED              ACCESS:SEQUENTIAL          

 OPENING supply2.wel
 FILE TYPE:WEL   UNIT   19   STATUS:OLD    
 FORMAT:FORMATTED              ACCESS:SEQUENTIAL          

 OPENING supply2sf.cbc
 FILE TYPE:DATA(BINARY)   UNIT   50   STATUS:UNKNOWN
 FORMAT:BINARY                 ACCESS:SEQUENTIAL          

 OPENING supply2hd.bhd
 FILE TYPE:DATA(BINARY)   UNIT   51   STATUS:UNKNOWN
 FORMAT:BINARY                 ACCESS:SEQUENTIAL          

 BAS -- BASIC PACKAGE, VERSION 7, 5/2/2005 INPUT READ FROM UNIT   12
 
 MODFLOW was compiled using uniform precision
 Precision of REAL and DOUBLE PRECISION variables:          15

 DISCRETIZATION INPUT DATA READ FROM UNIT   11
    1 LAYERS        25 ROWS        30 COLUMNS
   12 STRESS PERIOD(S) IN SIMULATION
 MODEL TIME UNIT IS DAYS
 MODEL LENGTH UNIT IS UNDEFINED
  Confining bed flag for each layer:
   0

                     DELR =   200.000    

                     DELC =   200.000    

 TOP ELEVATION OF LAYER 1 =  100.0000    

   MODEL LAYER BOTTOM EL. =   0.00000     FOR LAYER   1


 STRESS PERIOD     LENGTH       TIME STEPS     MULTIPLIER FOR DELT    SS FLAG
 ----------------------------------------------------------------------------
        1         92.00000          1                    1.500         TR
        2         91.00000          1                    1.500         TR
        3         91.00000          1                    1.500         TR
        4         91.00000          1                    1.500         TR
        5         92.00000          1                    1.500         TR
        6         91.00000          1                    1.500         TR
        7         91.00000          1                    1.500         TR
        8         91.00000          1                    1.500         TR
        9         92.00000          1                    1.500         TR
       10         91.00000          1                    1.500         TR
       11         91.00000          1                    1.500         TR
       12         91.00000          1                    1.500         TR

 TRANSIENT SIMULATION



 
 #MODOFC transient water supply sample problem                                   
 #                                                                               
 THE FREE FORMAT OPTION HAS BEEN SELECTED



                     BOUNDARY ARRAY FOR LAYER   1
 READING ON UNIT   12 WITH FORMAT: (20I4)              

 AQUIFER HEAD WILL BE SET TO   0.0000     AT ALL NO-FLOW NODES (IBOUND=0).



                       INITIAL HEAD FOR LAYER   1
 READING ON UNIT   12 WITH FORMAT: (10F13.0)           

 OUTPUT CONTROL IS SPECIFIED ONLY AT TIME STEPS FOR WHICH OUTPUT IS DESIRED
 COMPACT CELL-BY-CELL BUDGET FILES WILL BE WRITTEN
 HEAD PRINT FORMAT CODE IS  18    DRAWDOWN PRINT FORMAT CODE IS   0
 HEADS WILL BE SAVED ON UNIT   51    DRAWDOWNS WILL BE SAVED ON UNIT    0

 BCF -- BLOCK-CENTERED FLOW PACKAGE, VERSION 7, 5/2/2005
         INPUT READ FROM UNIT 13
 TRANSIENT SIMULATION
 HEAD AT CELLS THAT CONVERT TO DRY=   0.0000    
 WETTING CAPABILITY IS NOT ACTIVE
      LAYER  LAYER-TYPE CODE     INTERBLOCK T
      --------------------------------------------
         1            0          0 -- HARMONIC    

 COLUMN TO ROW ANISOTROPY =  1.000000    

     PRIMARY STORAGE COEF =  5.000000E-02 FOR LAYER   1



               TRANSMIS. ALONG ROWS FOR LAYER   1
 READING ON UNIT   13 WITH FORMAT: (FREE)              

 WEL -- WELL PACKAGE, VERSION 7, 5/2/2005 INPUT READ FROM UNIT   19
 # Well package input file written by MMProc
 No named parameters
 MAXIMUM OF      4 ACTIVE WELLS AT ONE TIME


     0 Well parameters

 RCH -- RECHARGE PACKAGE, VERSION 7, 5/2/2005 INPUT READ FROM UNIT   15
 No named parameters
 OPTION 1 -- RECHARGE TO TOP LAYER


     0 Recharge parameters

 SFR7 -- STREAMFLOW ROUTING PACKAGE, VERSION 1.0.7, 2013-01-15
         INPUT READ FROM UNIT  16
 #  Supply2 test problem for GWM-VI
 #  The eighth entry in the first data line is ISTCB2 -
 #    Setting this to a negative number indicates that
 #    streamflows out of the reach will be saved to a
 #    binary file.  The absolute value of ISTCB2 is the
 #    unit to which unformatted flows will be written.
 #
 No named parameters
 Segment information will not be 
 read by reach
 No named parameters
 No specifed inflow files


 NUMBER OF STREAM REACHES IS   40

 NUMBER OF STREAM SEGMENTS IS    3

 NUMBER OF STREAM PARAMETERS IS    0

 NUMBER OF STREAM SEGMENTS DEFINED USING PARAMETERS IS              0

 MAXIMUM ERROR FOR STREAM LEAKAGE RATES IS  1.00E-04

 CONSTANT FOR MANNINGS EQUATION IS  1.2839E+05





   STREAM NETWORK DESCRIPTION: 

   LAYER    ROW    COL   SEGMENT   REACH     LENGTH
                          NUMBER   NUMBER    IN CELL        
   --------------------------------------------------
      1     13      1       1        1    2.0000E+02
      1     13      2       1        2    2.0000E+02
      1     14      3       1        3    2.0000E+02
      1     15      4       1        4    2.0000E+02
      1     16      5       1        5    2.0000E+02
      1     16      6       1        6    2.0000E+02
      1     16      7       1        7    2.0000E+02
      1     16      8       1        8    2.0000E+02
      1     16      9       1        9    2.0000E+02
      1     16     10       1       10    2.0000E+02
      1     16     11       1       11    2.0000E+02
      1     16     12       1       12    2.0000E+02
      1     15     13       1       13    2.0000E+02
      1     14     14       1       14    2.0000E+02
      1     13     15       1       15    2.0000E+02
      1     12     16       1       16    2.0000E+02
      1     12     17       1       17    2.0000E+02
      1     12     18       1       18    2.0000E+02
      1     12     19       1       19    2.0000E+02
      1     13     20       1       20    2.0000E+02
      1     14     21       1       21    2.0000E+02
      1     14     22       1       22    2.0000E+02
      1      9     30       2        1    2.0000E+02
      1      9     29       2        2    2.0000E+02
      1      9     28       2        3    2.0000E+02
      1      9     27       2        4    2.0000E+02
      1     10     26       2        5    2.0000E+02
      1     11     25       2        6    2.0000E+02
      1     12     24       2        7    2.0000E+02
      1     13     23       2        8    2.0000E+02
      1     14     22       2        9    2.0000E+02
      1     14     22       3        1    2.0000E+02
      1     15     23       3        2    2.0000E+02
      1     15     24       3        3    2.0000E+02
      1     15     25       3        4    2.0000E+02
      1     15     26       3        5    2.0000E+02
      1     16     27       3        6    2.0000E+02
      1     17     28       3        7    2.0000E+02
      1     18     29       3        8    2.0000E+02
      1     18     30       3        9    2.0000E+02




 PCG -- CONJUGATE-GRADIENT SOLUTION PACKAGE, VERSION 7, 5/2/2005
 MAXIMUM OF    500 CALLS OF SOLUTION ROUTINE
 MAXIMUM OF      5 INTERNAL ITERATIONS PER CALL TO SOLUTION ROUTINE
 MATRIX PRECONDITIONING TYPE :    1



                                    SOLUTION BY THE CONJUGATE-GRADIENT METHOD
                                   -------------------------------------------
                    MAXIMUM NUMBER OF CALLS TO PCG ROUTINE =      500
                        MAXIMUM ITERATIONS PER CALL TO PCG =        5
                               MATRIX PRECONDITIONING TYPE =        1
        RELAXATION FACTOR (ONLY USED WITH PRECOND. TYPE 1) =    0.10000E+01
 PARAMETER OF POLYNOMIAL PRECOND. = 2 (2) OR IS CALCULATED :        0
                         HEAD CHANGE CRITERION FOR CLOSURE =    0.10000E-05
                     RESIDUAL CHANGE CRITERION FOR CLOSURE =    0.10000E+01
            PCG HEAD AND RESIDUAL CHANGE PRINTOUT INTERVAL =        1
     PRINTING FROM SOLVER IS LIMITED(1) OR SUPPRESSED (>1) =        1
                            STEADY-STATE DAMPING PARAMETER =    0.10000E+01
                               TRANSIENT DAMPING PARAMETER =    0.10000E+01
1
                            STRESS PERIOD NO.    1, LENGTH =   92.00000    
                            -----------------------------------------------

                              NUMBER OF TIME STEPS =     1

                               MULTIPLIER FOR DELT =     1.500

                            INITIAL TIME STEP SIZE =   92.00000    

 WELL NO.  LAYER   ROW   COL   STRESS RATE         
 --------------------------------------------------
      1      1     10     17     -0.1009E+05
      2      1     11     19      -420.2    
      3      1     19     16      -9508.    
      4      1      6     15     -0.1040E+05

      4 WELLS

                 RECHARGE =  5.000000E-04



 CLASSIFICATION & COUNT OF STREAM SEGMENTS BASED ON SOURCE OF INFLOW:

                HEADWATER     DIVERSION     RECEIVES TRIBUTARY FLOW
                ---------     ---------     -----------------------
                     2              0               1



                    INPUT DATA FOR EACH STREAM SEGMENT
 ---------------------------------------------------------------------------------------------

 SEGMENT    SEG.     INFLOW   OVERLAND   STREAM    STREAM   ICALC  OUTFLOW  DIVERSION PRIORITY
    NO.    LENGTH     RATE     RUNOFF      ET       PPT.    METH.  TO SEG.  FROM SEG.    NO.

      1  4.400E+03 1.000E+05 0.000E+00 0.000E+00 0.000E+00    1        3        0        0
      2  1.800E+03 5.000E+04 0.000E+00 0.000E+00 0.000E+00    1        3        0        0
      3  1.800E+03 0.000E+00 0.000E+00 0.000E+00 0.000E+00    1        0        0        0


         STREAMBED PROPERTIES AND STREAM DIMENSIONS

 SEGMENT     BED HYD. COND.      BED THICKNESS     ELEV.-TOP OF BED     WIDTH OF STREAM     DEPTH OF STREAM    STREAM ROUGHNESS
    No.     UPPER     LOWER     UPPER     LOWER     UPPER     LOWER     UPPER     LOWER     UPPER     LOWER   CHANNEL      BANK

     1  5.000E+00 5.000E+00 1.000E+00 1.000E+00 4.850E+01 3.800E+01 2.000E+01 2.000E+01                     5.000E-02
     2  5.000E+00 5.000E+00 1.000E+00 1.000E+00 4.025E+01 3.800E+01 2.000E+01 2.000E+01                     5.000E-02
     3  5.000E+00 5.000E+00 1.000E+00 1.000E+00 3.800E+01 3.000E+01 2.000E+01 2.000E+01                     5.000E-02



 
 SOLVING FOR HEAD 


     9 CALLS TO PCG ROUTINE FOR TIME STEP   1 IN STRESS PERIOD    1
    36 TOTAL ITERATIONS

 OUTPUT CONTROL FOR STRESS PERIOD    1   TIME STEP    1
    SAVE BUDGET
    SAVE HEAD FOR ALL LAYERS
    PRINT HEAD FOR ALL LAYERS
 UBDSV2 SAVING "STREAMFLOW OUT  " ON UNIT  50 AT TIME STEP  1, STRESS PERIOD   1



 STREAM LISTING     PERIOD      1   STEP        1

 LAYER ROW COL. STREAM  RCH.  FLOW INTO     FLOW TO   FLOW OUT OF   OVRLND.     DIRECT     STREAM       STREAM     STREAM     STREAM   STREAMBED  STREAMBED
                SEG.NO.  NO.  STRM. RCH.    AQUIFER    STRM. RCH.    RUNOFF     PRECIP       ET          HEAD       DEPTH      WIDTH   CONDCTNC.   GRADIENT

   1   13    1     1     1    1.0000E+05 -6.0962E+03   1.0610E+05  0.000E+00  0.000E+00  0.000E+00  4.84086E+01  1.473E-01  2.000E+01  2.000E+04 -3.048E-01
   1   13    2     1     2    1.0610E+05 -7.5650E+03   1.1366E+05  0.000E+00  0.000E+00  0.000E+00  4.79372E+01  1.531E-01  2.000E+01  2.000E+04 -3.782E-01
   1   14    3     1     3    1.1366E+05 -2.1963E+03   1.1586E+05  0.000E+00  0.000E+00  0.000E+00  4.74639E+01  1.571E-01  2.000E+01  2.000E+04 -1.098E-01
   1   15    4     1     4    1.1586E+05 -2.2666E+03   1.1812E+05  0.000E+00  0.000E+00  0.000E+00  4.69885E+01  1.589E-01  2.000E+01  2.000E+04 -1.133E-01
   1   16    5     1     5    1.1812E+05 -7.1493E+03   1.2527E+05  0.000E+00  0.000E+00  0.000E+00  4.65150E+01  1.627E-01  2.000E+01  2.000E+04 -3.575E-01
   1   16    6     1     6    1.2527E+05 -4.2717E+03   1.2955E+05  0.000E+00  0.000E+00  0.000E+00  4.60423E+01  1.673E-01  2.000E+01  2.000E+04 -2.136E-01
   1   16    7     1     7    1.2955E+05 -4.0947E+03   1.3364E+05  0.000E+00  0.000E+00  0.000E+00  4.55683E+01  1.706E-01  2.000E+01  2.000E+04 -2.047E-01
   1   16    8     1     8    1.3364E+05 -4.0350E+03   1.3767E+05  0.000E+00  0.000E+00  0.000E+00  4.50942E+01  1.737E-01  2.000E+01  2.000E+04 -2.018E-01
   1   16    9     1     9    1.3767E+05 -3.9952E+03   1.4167E+05  0.000E+00  0.000E+00  0.000E+00  4.46199E+01  1.768E-01  2.000E+01  2.000E+04 -1.998E-01
   1   16   10     1    10    1.4167E+05 -3.9464E+03   1.4562E+05  0.000E+00  0.000E+00  0.000E+00  4.41457E+01  1.798E-01  2.000E+01  2.000E+04 -1.973E-01
   1   16   11     1    11    1.4562E+05 -3.8991E+03   1.4952E+05  0.000E+00  0.000E+00  0.000E+00  4.36713E+01  1.827E-01  2.000E+01  2.000E+04 -1.950E-01
   1   16   12     1    12    1.4952E+05 -6.3589E+03   1.5587E+05  0.000E+00  0.000E+00  0.000E+00  4.31978E+01  1.865E-01  2.000E+01  2.000E+04 -3.179E-01
   1   15   13     1    13    1.5587E+05 -6.6465E+03   1.6252E+05  0.000E+00  0.000E+00  0.000E+00  4.27253E+01  1.912E-01  2.000E+01  2.000E+04 -3.323E-01
   1   14   14     1    14    1.6252E+05 -7.0908E+03   1.6961E+05  0.000E+00  0.000E+00  0.000E+00  4.22529E+01  1.961E-01  2.000E+01  2.000E+04 -3.545E-01
   1   13   15     1    15    1.6961E+05 -7.2539E+03   1.7687E+05  0.000E+00  0.000E+00  0.000E+00  4.17807E+01  2.011E-01  2.000E+01  2.000E+04 -3.627E-01
   1   12   16     1    16    1.7687E+05 -6.9031E+03   1.8377E+05  0.000E+00  0.000E+00  0.000E+00  4.13083E+01  2.060E-01  2.000E+01  2.000E+04 -3.452E-01
   1   12   17     1    17    1.8377E+05 -4.2801E+03   1.8805E+05  0.000E+00  0.000E+00  0.000E+00  4.08348E+01  2.098E-01  2.000E+01  2.000E+04 -2.140E-01
   1   12   18     1    18    1.8805E+05 -4.6941E+03   1.9274E+05  0.000E+00  0.000E+00  0.000E+00  4.03606E+01  2.129E-01  2.000E+01  2.000E+04 -2.347E-01
   1   12   19     1    19    1.9274E+05 -6.5050E+03   1.9925E+05  0.000E+00  0.000E+00  0.000E+00  3.98871E+01  2.166E-01  2.000E+01  2.000E+04 -3.253E-01
   1   13   20     1    20    1.9925E+05 -6.3492E+03   2.0560E+05  0.000E+00  0.000E+00  0.000E+00  3.94140E+01  2.208E-01  2.000E+01  2.000E+04 -3.175E-01
   1   14   21     1    21    2.0560E+05 -6.0503E+03   2.1165E+05  0.000E+00  0.000E+00  0.000E+00  3.89408E+01  2.249E-01  2.000E+01  2.000E+04 -3.025E-01
   1   14   22     1    22    2.1165E+05  3.6698E+03   2.0798E+05  0.000E+00  0.000E+00  0.000E+00  3.84643E+01  2.256E-01  2.000E+01  2.000E+04  1.835E-01
   1    9   30     2     1    5.0000E+04 -4.8303E+03   5.4830E+04  0.000E+00  0.000E+00  0.000E+00  4.02442E+01  1.192E-01  2.000E+01  2.000E+04 -2.415E-01
   1    9   29     2     2    5.4830E+04 -5.1209E+03   5.9951E+04  0.000E+00  0.000E+00  0.000E+00  4.00009E+01  1.259E-01  2.000E+01  2.000E+04 -2.560E-01
   1    9   28     2     3    5.9951E+04 -5.3931E+03   6.5344E+04  0.000E+00  0.000E+00  0.000E+00  3.97577E+01  1.327E-01  2.000E+01  2.000E+04 -2.697E-01
   1    9   27     2     4    6.5344E+04 -8.1675E+03   7.3512E+04  0.000E+00  0.000E+00  0.000E+00  3.95161E+01  1.411E-01  2.000E+01  2.000E+04 -4.084E-01
   1   10   26     2     5    7.3512E+04 -7.1909E+03   8.0703E+04  0.000E+00  0.000E+00  0.000E+00  3.92753E+01  1.503E-01  2.000E+01  2.000E+04 -3.595E-01
   1   11   25     2     6    8.0703E+04 -6.6180E+03   8.7321E+04  0.000E+00  0.000E+00  0.000E+00  3.90332E+01  1.582E-01  2.000E+01  2.000E+04 -3.309E-01
   1   12   24     2     7    8.7321E+04 -6.0912E+03   9.3412E+04  0.000E+00  0.000E+00  0.000E+00  3.87903E+01  1.653E-01  2.000E+01  2.000E+04 -3.046E-01
   1   13   23     2     8    9.3412E+04 -1.6148E+03   9.5027E+04  0.000E+00  0.000E+00  0.000E+00  3.85445E+01  1.695E-01  2.000E+01  2.000E+04 -8.074E-02
   1   14   22     2     9    9.5027E+04  2.8757E+02   9.4739E+04  0.000E+00  0.000E+00  0.000E+00  3.82952E+01  1.702E-01  2.000E+01  2.000E+04  1.438E-02
   1   14   22     3     1    3.0272E+05 -9.7935E+03   3.1251E+05  0.000E+00  0.000E+00  0.000E+00  3.77911E+01  2.356E-01  2.000E+01  2.000E+04 -4.897E-01
   1   15   23     3     2    3.1251E+05 -1.9427E+03   3.1445E+05  0.000E+00  0.000E+00  0.000E+00  3.69049E+01  2.382E-01  2.000E+01  2.000E+04 -9.713E-02
   1   15   24     3     3    3.1445E+05 -1.5222E+03   3.1598E+05  0.000E+00  0.000E+00  0.000E+00  3.60168E+01  2.390E-01  2.000E+01  2.000E+04 -7.611E-02
   1   15   25     3     4    3.1598E+05 -1.5759E+03   3.1755E+05  0.000E+00  0.000E+00  0.000E+00  3.51286E+01  2.397E-01  2.000E+01  2.000E+04 -7.879E-02
   1   15   26     3     5    3.1755E+05 -1.8814E+03   3.1943E+05  0.000E+00  0.000E+00  0.000E+00  3.42405E+01  2.405E-01  2.000E+01  2.000E+04 -9.407E-02
   1   16   27     3     6    3.1943E+05 -2.1617E+03   3.2159E+05  0.000E+00  0.000E+00  0.000E+00  3.33526E+01  2.414E-01  2.000E+01  2.000E+04 -1.081E-01
   1   17   28     3     7    3.2159E+05 -6.5648E+03   3.2816E+05  0.000E+00  0.000E+00  0.000E+00  3.24656E+01  2.434E-01  2.000E+01  2.000E+04 -3.282E-01
   1   18   29     3     8    3.2816E+05 -7.9569E+03   3.3612E+05  0.000E+00  0.000E+00  0.000E+00  3.15800E+01  2.467E-01  2.000E+01  2.000E+04 -3.978E-01
   1   18   30     3     9    3.3612E+05 -7.1533E+03   3.4327E+05  0.000E+00  0.000E+00  0.000E+00  3.06945E+01  2.500E-01  2.000E+01  2.000E+04 -3.577E-01



1
              HEAD IN LAYER   1 AT END OF TIME STEP   1 IN STRESS PERIOD    1
  ---------------------------------------------------------------------------

          1      2      3      4      5      6      7      8      9     10
         11     12     13     14     15     16     17     18     19     20
         21     22     23     24     25     26     27     28     29     30
 .........................................................................
   1  ****** ****** ****** ****** ****** ****** ****** ****** ****** ******
      ****** ****** ****** ****** ****** ****** ****** ****** ****** ******
      ****** ****** ****** ****** ****** ****** ****** ****** ****** ******
   2  ****** ****** ****** ****** ****** ****** ****** ****** ****** ******
      ****** ****** ****** ****** ****** ****** ****** ****** ****** ******
      ****** ****** ****** ****** ****** ****** ****** ****** ****** ******
   3  ****** ****** ****** ****** ****** ****** ****** ****** ****** ******
      ****** ****** ****** ****** ****** ****** ****** ****** ****** ******
      ****** ****** ****** ****** ****** ****** ****** ****** ****** ******
   4  ****** ****** ****** ****** ****** ****** ****** ****** ****** ******
      ****** ****** ****** ****** ****** ****** ****** ****** ****** ******
      ****** ****** ****** ****** ****** ****** ****** ****** ****** ******
   5  ****** ****** ****** ****** ****** ****** ****** ****** ****** ******
      ****** ****** ****** ****** ****** ****** ****** ****** ****** ******
      ****** ****** ****** ****** ****** ****** ****** ****** ****** ******
   6  ****** ****** ****** ****** ****** ****** ****** ****** ****** ******
      ****** ****** ****** ****** ****** ****** ****** ****** ****** ******
      ****** ****** ****** ****** ****** ****** ****** ****** ****** ******
   7  ****** ****** ****** ****** ****** ****** ****** ****** ****** ******
      ****** ****** ****** ****** ****** ****** ****** ****** ****** ******
      ****** ****** ****** ****** ****** ****** ****** ****** ****** ******
   8  ****** ****** ****** ****** ****** ****** ****** ****** ****** ******
      ****** ****** ****** ****** ****** ****** ****** ****** ****** ******
      ****** ****** ****** ****** ****** ****** ****** ****** ****** ******
   9  ****** ****** ****** ****** ****** ****** ****** ****** ****** ******
      ****** ****** ****** ****** ****** ****** ****** ****** ****** ******
      ****** ****** ****** ****** ****** ****** ****** ****** ****** ******
  10  ****** ****** ****** ****** ****** ****** ****** ****** ****** ******
      ****** ****** ****** ****** ****** ****** ****** ****** ****** ******
      ****** ****** ****** ****** ****** ****** ****** ****** ****** ******
  11  ****** ****** ****** ****** ****** ****** ****** ****** ****** ******
      ****** ****** ****** ****** ****** ****** ****** ****** ****** ******
      ****** ****** ****** ****** ****** ****** ****** ****** ****** ******
  12  ****** ****** ****** ****** ****** ****** ****** ****** ****** ******
      ****** ****** ****** ****** ****** ****** ****** ****** ****** ******
      ****** ****** ****** ****** ****** ****** ****** ****** ****** ******
  13  ****** ****** ****** ****** ****** ****** ****** ****** ****** ******
      ****** ****** ****** ****** ****** ****** ****** ****** ****** ******
      ****** ****** ****** ****** ****** ****** ****** ****** ****** ******
  14  ****** ****** ****** ****** ****** ****** ****** ****** ****** ******
      ****** ****** ****** ****** ****** ****** ****** ****** ****** ******
      ****** ****** ****** ****** ****** ****** ****** ****** ****** ******
  15  ****** ****** ****** ****** ****** ****** ****** ****** ****** ******
      ****** ****** ****** ****** ****** ****** ****** ****** ****** ******
      ****** ****** ****** ****** ****** ****** ****** ****** ****** ******
  16  ****** ****** ****** ****** ****** ****** ****** ****** ****** ******
      ****** ****** ****** ****** ****** ****** ****** ****** ****** ******
      ****** ****** ****** ****** ****** ****** ****** ****** ****** ******
  17  ****** ****** ****** ****** ****** ****** ****** ****** ****** ******
      ****** ****** ****** ****** ****** ****** ****** ****** ****** ******
      ****** ****** ****** ****** ****** ****** ****** ****** ****** ******
  18  ****** ****** ****** ****** ****** ****** ****** ****** ****** ******
      ****** ****** ****** ****** ****** ****** ****** ****** ****** ******
      ****** ****** ****** ****** ****** ****** ****** ****** ****** ******
  19  ****** ****** ****** ****** ****** ****** ****** ****** ****** ******
      ****** ****** ****** ****** ****** ****** ****** ****** ****** ******
      ****** ****** ****** ****** ****** ****** ****** ****** ****** ******
  20  ****** ****** ****** ****** ****** ****** ****** ****** ****** ******
      ****** ****** ****** ****** ****** ****** ****** ****** ****** ******
      ****** ****** ****** ****** ****** ****** ****** ****** ****** ******
  21  ****** ****** ****** ****** ****** ****** ****** ****** ****** ******
      ****** ****** ****** ****** ****** ****** ****** ****** ****** ******
      ****** ****** ****** ****** ****** ****** ****** ****** ****** ******
  22  ****** ****** ****** ****** ****** ****** ****** ****** ****** ******
      ****** ****** ****** ****** ****** ****** ****** ****** ****** ******
      ****** ****** ****** ****** ****** ****** ****** ****** ****** ******
  23  ****** ****** ****** ****** ****** ****** ****** ****** ****** ******
      ****** ****** ****** ****** ****** ****** ****** ****** ****** ******
      ****** ****** ****** ****** ****** ****** ****** ****** ****** ******
  24  ****** ****** ****** ****** ****** ****** ****** ****** ****** ******
      ****** ****** ****** ****** ****** ****** ****** ****** ****** ******
      ****** ****** ****** ****** ****** ****** ****** ****** ****** ******
  25  ****** ****** ****** ****** ****** ****** ****** ****** ****** ******
      ****** ****** ****** ****** ****** ****** ****** ****** ****** ******
      ****** ****** ****** ****** ****** ****** ****** ****** ****** ******

 HEAD WILL BE SAVED ON UNIT   51 AT END OF TIME STEP    1, STRESS PERIOD    1
1
  VOLUMETRIC BUDGET FOR ENTIRE MODEL AT END OF TIME STEP    1, STRESS PERIOD   1
  ------------------------------------------------------------------------------

     CUMULATIVE VOLUMES      L**3       RATES FOR THIS TIME STEP      L**3/T
     ------------------                 ------------------------

           IN:                                      IN:
           ---                                      ---
             STORAGE =    18118889.8924               STORAGE =      196944.4554
       CONSTANT HEAD =     1190485.7306         CONSTANT HEAD =       12940.0623
               WELLS =           0.0000                 WELLS =           0.0000
            RECHARGE =     1269600.0000              RECHARGE =       13800.0000
      STREAM LEAKAGE =      364074.3346        STREAM LEAKAGE =        3957.3297

            TOTAL IN =    20943049.9575              TOTAL IN =      227641.8474

          OUT:                                     OUT:
          ----                                     ----
             STORAGE =           0.0000               STORAGE =           0.0000
       CONSTANT HEAD =           0.0000         CONSTANT HEAD =           0.0000
               WELLS =     2798230.5019                 WELLS =       30415.5489
            RECHARGE =           0.0000              RECHARGE =           0.0000
      STREAM LEAKAGE =    18144819.7718        STREAM LEAKAGE =      197226.3019

           TOTAL OUT =    20943050.2737             TOTAL OUT =      227641.8508

            IN - OUT =          -0.3162              IN - OUT =      -3.4364E-03

 PERCENT DISCREPANCY =          -0.00     PERCENT DISCREPANCY =          -0.00






         TIME SUMMARY AT END OF TIME STEP    1 IN STRESS PERIOD    1
                    SECONDS     MINUTES      HOURS       DAYS        YEARS
                    -----------------------------------------------------------
   TIME STEP LENGTH 7.94880E+06 1.32480E+05  2208.0      92.000     0.25188    
 STRESS PERIOD TIME 7.94880E+06 1.32480E+05  2208.0      92.000     0.25188    
         TOTAL TIME 7.94880E+06 1.32480E+05  2208.0      92.000     0.25188    
1
1
                            STRESS PERIOD NO.    2, LENGTH =   91.00000    
                            -----------------------------------------------

                              NUMBER OF TIME STEPS =     1

                               MULTIPLIER FOR DELT =     1.500

                            INITIAL TIME STEP SIZE =   91.00000    

 WELL NO.  LAYER   ROW   COL   STRESS RATE         
 --------------------------------------------------
      1      1     10     17     -0.1009E+05
      2      1     11     19      -420.2    
      3      1     19     16      -9508.    
      4      1      6     15     -0.1040E+05

      4 WELLS

                 RECHARGE =  2.000000E-03

 REUSING STREAM SEGMENT DATA FROM LAST STRESS PERIOD
 
 SOLVING FOR HEAD 


     7 CALLS TO PCG ROUTINE FOR TIME STEP   1 IN STRESS PERIOD    2
    27 TOTAL ITERATIONS

 OUTPUT CONTROL FOR STRESS PERIOD    2   TIME STEP    1
    SAVE BUDGET
    SAVE HEAD FOR ALL LAYERS
    PRINT HEAD FOR ALL LAYERS
 UBDSV2 SAVING "STREAMFLOW OUT  " ON UNIT  50 AT TIME STEP  1, STRESS PERIOD   2



 STREAM LISTING     PERIOD      2   STEP        1

 LAYER ROW COL. STREAM  RCH.  FLOW INTO     FLOW TO   FLOW OUT OF   OVRLND.     DIRECT     STREAM       STREAM     STREAM     STREAM   STREAMBED  STREAMBED
                SEG.NO.  NO.  STRM. RCH.    AQUIFER    STRM. RCH.    RUNOFF     PRECIP       ET          HEAD       DEPTH      WIDTH   CONDCTNC.   GRADIENT

   1   13    1     1     1    1.0000E+05 -3.9371E+03   1.0394E+05  0.000E+00  0.000E+00  0.000E+00  4.84077E+01  1.464E-01  2.000E+01  2.000E+04 -1.969E-01
   1   13    2     1     2    1.0394E+05 -5.1960E+03   1.0913E+05  0.000E+00  0.000E+00  0.000E+00  4.79343E+01  1.503E-01  2.000E+01  2.000E+04 -2.598E-01
   1   14    3     1     3    1.0913E+05 -1.1087E+03   1.1024E+05  0.000E+00  0.000E+00  0.000E+00  4.74597E+01  1.529E-01  2.000E+01  2.000E+04 -5.543E-02
   1   15    4     1     4    1.1024E+05 -1.1348E+03   1.1138E+05  0.000E+00  0.000E+00  0.000E+00  4.69834E+01  1.538E-01  2.000E+01  2.000E+04 -5.674E-02
   1   16    5     1     5    1.1138E+05 -4.1788E+03   1.1556E+05  0.000E+00  0.000E+00  0.000E+00  4.65083E+01  1.560E-01  2.000E+01  2.000E+04 -2.089E-01
   1   16    6     1     6    1.1556E+05 -2.4454E+03   1.1800E+05  0.000E+00  0.000E+00  0.000E+00  4.60338E+01  1.588E-01  2.000E+01  2.000E+04 -1.223E-01
   1   16    7     1     7    1.1800E+05 -2.3321E+03   1.2033E+05  0.000E+00  0.000E+00  0.000E+00  4.55584E+01  1.607E-01  2.000E+01  2.000E+04 -1.166E-01
   1   16    8     1     8    1.2033E+05 -2.2732E+03   1.2261E+05  0.000E+00  0.000E+00  0.000E+00  4.50830E+01  1.626E-01  2.000E+01  2.000E+04 -1.137E-01
   1   16    9     1     9    1.2261E+05 -2.2083E+03   1.2481E+05  0.000E+00  0.000E+00  0.000E+00  4.46075E+01  1.643E-01  2.000E+01  2.000E+04 -1.104E-01
   1   16   10     1    10    1.2481E+05 -2.1170E+03   1.2693E+05  0.000E+00  0.000E+00  0.000E+00  4.41320E+01  1.661E-01  2.000E+01  2.000E+04 -1.059E-01
   1   16   11     1    11    1.2693E+05 -2.0081E+03   1.2894E+05  0.000E+00  0.000E+00  0.000E+00  4.36563E+01  1.677E-01  2.000E+01  2.000E+04 -1.004E-01
   1   16   12     1    12    1.2894E+05 -3.1949E+03   1.3213E+05  0.000E+00  0.000E+00  0.000E+00  4.31811E+01  1.697E-01  2.000E+01  2.000E+04 -1.597E-01
   1   15   13     1    13    1.3213E+05 -3.1220E+03   1.3526E+05  0.000E+00  0.000E+00  0.000E+00  4.27063E+01  1.722E-01  2.000E+01  2.000E+04 -1.561E-01
   1   14   14     1    14    1.3526E+05 -3.4164E+03   1.3867E+05  0.000E+00  0.000E+00  0.000E+00  4.22315E+01  1.747E-01  2.000E+01  2.000E+04 -1.708E-01
   1   13   15     1    15    1.3867E+05 -3.5368E+03   1.4221E+05  0.000E+00  0.000E+00  0.000E+00  4.17569E+01  1.773E-01  2.000E+01  2.000E+04 -1.768E-01
   1   12   16     1    16    1.4221E+05 -3.2272E+03   1.4544E+05  0.000E+00  0.000E+00  0.000E+00  4.12822E+01  1.799E-01  2.000E+01  2.000E+04 -1.614E-01
   1   12   17     1    17    1.4544E+05 -1.4154E+03   1.4685E+05  0.000E+00  0.000E+00  0.000E+00  4.08066E+01  1.816E-01  2.000E+01  2.000E+04 -7.077E-02
   1   12   18     1    18    1.4685E+05 -1.8727E+03   1.4872E+05  0.000E+00  0.000E+00  0.000E+00  4.03306E+01  1.829E-01  2.000E+01  2.000E+04 -9.363E-02
   1   12   19     1    19    1.4872E+05 -3.0560E+03   1.5178E+05  0.000E+00  0.000E+00  0.000E+00  3.98551E+01  1.847E-01  2.000E+01  2.000E+04 -1.528E-01
   1   13   20     1    20    1.5178E+05 -3.0432E+03   1.5482E+05  0.000E+00  0.000E+00  0.000E+00  3.93801E+01  1.869E-01  2.000E+01  2.000E+04 -1.522E-01
   1   14   21     1    21    1.5482E+05 -3.1418E+03   1.5797E+05  0.000E+00  0.000E+00  0.000E+00  3.89051E+01  1.892E-01  2.000E+01  2.000E+04 -1.571E-01
   1   14   22     1    22    1.5797E+05  4.4431E+03   1.5352E+05  0.000E+00  0.000E+00  0.000E+00  3.84273E+01  1.887E-01  2.000E+01  2.000E+04  2.222E-01
   1    9   30     2     1    5.0000E+04 -2.0932E+03   5.2093E+04  0.000E+00  0.000E+00  0.000E+00  4.02423E+01  1.173E-01  2.000E+01  2.000E+04 -1.047E-01
   1    9   29     2     2    5.2093E+04 -2.3940E+03   5.4487E+04  0.000E+00  0.000E+00  0.000E+00  3.99954E+01  1.204E-01  2.000E+01  2.000E+04 -1.197E-01
   1    9   28     2     3    5.4487E+04 -2.6746E+03   5.7162E+04  0.000E+00  0.000E+00  0.000E+00  3.97488E+01  1.238E-01  2.000E+01  2.000E+04 -1.337E-01
   1    9   27     2     4    5.7162E+04 -4.6234E+03   6.1785E+04  0.000E+00  0.000E+00  0.000E+00  3.95036E+01  1.286E-01  2.000E+01  2.000E+04 -2.312E-01
   1   10   26     2     5    6.1785E+04 -3.5096E+03   6.5295E+04  0.000E+00  0.000E+00  0.000E+00  3.92588E+01  1.338E-01  2.000E+01  2.000E+04 -1.755E-01
   1   11   25     2     6    6.5295E+04 -3.0862E+03   6.8381E+04  0.000E+00  0.000E+00  0.000E+00  3.90129E+01  1.379E-01  2.000E+01  2.000E+04 -1.543E-01
   1   12   24     2     7    6.8381E+04 -2.9030E+03   7.1284E+04  0.000E+00  0.000E+00  0.000E+00  3.87666E+01  1.416E-01  2.000E+01  2.000E+04 -1.451E-01
   1   13   23     2     8    7.1284E+04 -5.5546E+02   7.1839E+04  0.000E+00  0.000E+00  0.000E+00  3.85187E+01  1.437E-01  2.000E+01  2.000E+04 -2.777E-02
   1   14   22     2     9    7.1839E+04  1.2613E+03   7.0578E+04  0.000E+00  0.000E+00  0.000E+00  3.82682E+01  1.432E-01  2.000E+01  2.000E+04  6.307E-02
   1   14   22     3     1    2.2410E+05 -9.0497E+03   2.3315E+05  0.000E+00  0.000E+00  0.000E+00  3.77527E+01  1.971E-01  2.000E+01  2.000E+04 -4.525E-01
   1   15   23     3     2    2.3315E+05 -9.7371E+02   2.3412E+05  0.000E+00  0.000E+00  0.000E+00  3.68664E+01  1.997E-01  2.000E+01  2.000E+04 -4.869E-02
   1   15   24     3     3    2.3412E+05 -6.4869E+02   2.3477E+05  0.000E+00  0.000E+00  0.000E+00  3.59779E+01  2.001E-01  2.000E+01  2.000E+04 -3.243E-02
   1   15   25     3     4    2.3477E+05 -6.6263E+02   2.3544E+05  0.000E+00  0.000E+00  0.000E+00  3.50894E+01  2.005E-01  2.000E+01  2.000E+04 -3.313E-02
   1   15   26     3     5    2.3544E+05 -7.6896E+02   2.3620E+05  0.000E+00  0.000E+00  0.000E+00  3.42008E+01  2.008E-01  2.000E+01  2.000E+04 -3.845E-02
   1   16   27     3     6    2.3620E+05 -8.9107E+02   2.3710E+05  0.000E+00  0.000E+00  0.000E+00  3.33124E+01  2.013E-01  2.000E+01  2.000E+04 -4.455E-02
   1   17   28     3     7    2.3710E+05 -3.2221E+03   2.4032E+05  0.000E+00  0.000E+00  0.000E+00  3.24245E+01  2.023E-01  2.000E+01  2.000E+04 -1.611E-01
   1   18   29     3     8    2.4032E+05 -4.9686E+03   2.4529E+05  0.000E+00  0.000E+00  0.000E+00  3.15377E+01  2.044E-01  2.000E+01  2.000E+04 -2.484E-01
   1   18   30     3     9    2.4529E+05 -4.6343E+03   2.4992E+05  0.000E+00  0.000E+00  0.000E+00  3.06512E+01  2.068E-01  2.000E+01  2.000E+04 -2.317E-01



1
              HEAD IN LAYER   1 AT END OF TIME STEP   1 IN STRESS PERIOD    2
  ---------------------------------------------------------------------------

          1      2      3      4      5      6      7      8      9     10
         11     12     13     14     15     16     17     18     19     20
         21     22     23     24     25     26     27     28     29     30
 .........................................................................
   1  ****** ****** ****** ****** ****** ****** ****** ****** ****** ******
      ****** ****** ****** ****** ****** ****** ****** ****** ****** ******
      ****** ****** ****** ****** ****** ****** ****** ****** ****** ******
   2  ****** ****** ****** ****** ****** ****** ****** ****** ****** ******
      ****** ****** ****** ****** ****** ****** ****** ****** ****** ******
      ****** ****** ****** ****** ****** ****** ****** ****** ****** ******
   3  ****** ****** ****** ****** ****** ****** ****** ****** ****** ******
      ****** ****** ****** ****** ****** ****** ****** ****** ****** ******
      ****** ****** ****** ****** ****** ****** ****** ****** ****** ******
   4  ****** ****** ****** ****** ****** ****** ****** ****** ****** ******
      ****** ****** ****** ****** ****** ****** ****** ****** ****** ******
      ****** ****** ****** ****** ****** ****** ****** ****** ****** ******
   5  ****** ****** ****** ****** ****** ****** ****** ****** ****** ******
      ****** ****** ****** ****** ****** ****** ****** ****** ****** ******
      ****** ****** ****** ****** ****** ****** ****** ****** ****** ******
   6  ****** ****** ****** ****** ****** ****** ****** ****** ****** ******
      ****** ****** ****** ****** ****** ****** ****** ****** ****** ******
      ****** ****** ****** ****** ****** ****** ****** ****** ****** ******
   7  ****** ****** ****** ****** ****** ****** ****** ****** ****** ******
      ****** ****** ****** ****** ****** ****** ****** ****** ****** ******
      ****** ****** ****** ****** ****** ****** ****** ****** ****** ******
   8  ****** ****** ****** ****** ****** ****** ****** ****** ****** ******
      ****** ****** ****** ****** ****** ****** ****** ****** ****** ******
      ****** ****** ****** ****** ****** ****** ****** ****** ****** ******
   9  ****** ****** ****** ****** ****** ****** ****** ****** ****** ******
      ****** ****** ****** ****** ****** ****** ****** ****** ****** ******
      ****** ****** ****** ****** ****** ****** ****** ****** ****** ******
  10  ****** ****** ****** ****** ****** ****** ****** ****** ****** ******
      ****** ****** ****** ****** ****** ****** ****** ****** ****** ******
      ****** ****** ****** ****** ****** ****** ****** ****** ****** ******
  11  ****** ****** ****** ****** ****** ****** ****** ****** ****** ******
      ****** ****** ****** ****** ****** ****** ****** ****** ****** ******
      ****** ****** ****** ****** ****** ****** ****** ****** ****** ******
  12  ****** ****** ****** ****** ****** ****** ****** ****** ****** ******
      ****** ****** ****** ****** ****** ****** ****** ****** ****** ******
      ****** ****** ****** ****** ****** ****** ****** ****** ****** ******
  13  ****** ****** ****** ****** ****** ****** ****** ****** ****** ******
      ****** ****** ****** ****** ****** ****** ****** ****** ****** ******
      ****** ****** ****** ****** ****** ****** ****** ****** ****** ******
  14  ****** ****** ****** ****** ****** ****** ****** ****** ****** ******
      ****** ****** ****** ****** ****** ****** ****** ****** ****** ******
      ****** ****** ****** ****** ****** ****** ****** ****** ****** ******
  15  ****** ****** ****** ****** ****** ****** ****** ****** ****** ******
      ****** ****** ****** ****** ****** ****** ****** ****** ****** ******
      ****** ****** ****** ****** ****** ****** ****** ****** ****** ******
  16  ****** ****** ****** ****** ****** ****** ****** ****** ****** ******
      ****** ****** ****** ****** ****** ****** ****** ****** ****** ******
      ****** ****** ****** ****** ****** ****** ****** ****** ****** ******
  17  ****** ****** ****** ****** ****** ****** ****** ****** ****** ******
      ****** ****** ****** ****** ****** ****** ****** ****** ****** ******
      ****** ****** ****** ****** ****** ****** ****** ****** ****** ******
  18  ****** ****** ****** ****** ****** ****** ****** ****** ****** ******
      ****** ****** ****** ****** ****** ****** ****** ****** ****** ******
      ****** ****** ****** ****** ****** ****** ****** ****** ****** ******
  19  ****** ****** ****** ****** ****** ****** ****** ****** ****** ******
      ****** ****** ****** ****** ****** ****** ****** ****** ****** ******
      ****** ****** ****** ****** ****** ****** ****** ****** ****** ******
  20  ****** ****** ****** ****** ****** ****** ****** ****** ****** ******
      ****** ****** ****** ****** ****** ****** ****** ****** ****** ******
      ****** ****** ****** ****** ****** ****** ****** ****** ****** ******
  21  ****** ****** ****** ****** ****** ****** ****** ****** ****** ******
      ****** ****** ****** ****** ****** ****** ****** ****** ****** ******
      ****** ****** ****** ****** ****** ****** ****** ****** ****** ******
  22  ****** ****** ****** ****** ****** ****** ****** ****** ****** ******
      ****** ****** ****** ****** ****** ****** ****** ****** ****** ******
      ****** ****** ****** ****** ****** ****** ****** ****** ****** ******
  23  ****** ****** ****** ****** ****** ****** ****** ****** ****** ******
      ****** ****** ****** ****** ****** ****** ****** ****** ****** ******
      ****** ****** ****** ****** ****** ****** ****** ****** ****** ******
  24  ****** ****** ****** ****** ****** ****** ****** ****** ****** ******
      ****** ****** ****** ****** ****** ****** ****** ****** ****** ******
      ****** ****** ****** ****** ****** ****** ****** ****** ****** ******
  25  ****** ****** ****** ****** ****** ****** ****** ****** ****** ******
      ****** ****** ****** ****** ****** ****** ****** ****** ****** ******
      ****** ****** ****** ****** ****** ****** ****** ****** ****** ******

 HEAD WILL BE SAVED ON UNIT   51 AT END OF TIME STEP    1, STRESS PERIOD    2
1
  VOLUMETRIC BUDGET FOR ENTIRE MODEL AT END OF TIME STEP    1, STRESS PERIOD   2
  ------------------------------------------------------------------------------

     CUMULATIVE VOLUMES      L**3       RATES FOR THIS TIME STEP      L**3/T
     ------------------                 ------------------------

           IN:                                      IN:
           ---                                      ---
             STORAGE =    23328614.2143               STORAGE =       57249.7178
       CONSTANT HEAD =     2818149.8022         CONSTANT HEAD =       17886.4184
               WELLS =           0.0000                 WELLS =           0.0000
            RECHARGE =     6292800.0000              RECHARGE =       55200.0000
      STREAM LEAKAGE =      883174.2567        STREAM LEAKAGE =        5704.3947

            TOTAL IN =    33322738.2732              TOTAL IN =      136040.5309

          OUT:                                     OUT:
          ----                                     ----
             STORAGE =           0.0000               STORAGE =           0.0000
       CONSTANT HEAD =           0.0000         CONSTANT HEAD =           0.0000
               WELLS =     5566045.4549                 WELLS =       30415.5489
            RECHARGE =           0.0000              RECHARGE =           0.0000
      STREAM LEAKAGE =    27756694.0942        STREAM LEAKAGE =      105624.9926

           TOTAL OUT =    33322739.5491             TOTAL OUT =      136040.5415

            IN - OUT =          -1.2759              IN - OUT =      -1.0547E-02

 PERCENT DISCREPANCY =          -0.00     PERCENT DISCREPANCY =          -0.00






         TIME SUMMARY AT END OF TIME STEP    1 IN STRESS PERIOD    2
                    SECONDS     MINUTES      HOURS       DAYS        YEARS
                    -----------------------------------------------------------
   TIME STEP LENGTH 7.86240E+06 1.31040E+05  2184.0      91.000     0.24914    
 STRESS PERIOD TIME 7.86240E+06 1.31040E+05  2184.0      91.000     0.24914    
         TOTAL TIME 1.58112E+07 2.63520E+05  4392.0      183.00     0.50103    
1
1
                            STRESS PERIOD NO.    3, LENGTH =   91.00000    
                            -----------------------------------------------

                              NUMBER OF TIME STEPS =     1

                               MULTIPLIER FOR DELT =     1.500

                            INITIAL TIME STEP SIZE =   91.00000    

 WELL NO.  LAYER   ROW   COL   STRESS RATE         
 --------------------------------------------------
      1      1     10     17     -0.1009E+05
      2      1     11     19      -420.2    
      3      1     19     16      -9508.    
      4      1      6     15     -0.1040E+05

      4 WELLS

                 RECHARGE =   0.00000    

 REUSING STREAM SEGMENT DATA FROM LAST STRESS PERIOD
 
 SOLVING FOR HEAD 


     7 CALLS TO PCG ROUTINE FOR TIME STEP   1 IN STRESS PERIOD    3
    27 TOTAL ITERATIONS

 OUTPUT CONTROL FOR STRESS PERIOD    3   TIME STEP    1
    SAVE BUDGET
    SAVE HEAD FOR ALL LAYERS
    PRINT HEAD FOR ALL LAYERS
 UBDSV2 SAVING "STREAMFLOW OUT  " ON UNIT  50 AT TIME STEP  1, STRESS PERIOD   3



 STREAM LISTING     PERIOD      3   STEP        1

 LAYER ROW COL. STREAM  RCH.  FLOW INTO     FLOW TO   FLOW OUT OF   OVRLND.     DIRECT     STREAM       STREAM     STREAM     STREAM   STREAMBED  STREAMBED
                SEG.NO.  NO.  STRM. RCH.    AQUIFER    STRM. RCH.    RUNOFF     PRECIP       ET          HEAD       DEPTH      WIDTH   CONDCTNC.   GRADIENT

   1   13    1     1     1    1.0000E+05 -2.6424E+03   1.0264E+05  0.000E+00  0.000E+00  0.000E+00  4.84072E+01  1.458E-01  2.000E+01  2.000E+04 -1.321E-01
   1   13    2     1     2    1.0264E+05 -3.7445E+03   1.0639E+05  0.000E+00  0.000E+00  0.000E+00  4.79326E+01  1.485E-01  2.000E+01  2.000E+04 -1.872E-01
   1   14    3     1     3    1.0639E+05 -6.4262E+02   1.0703E+05  0.000E+00  0.000E+00  0.000E+00  4.74572E+01  1.504E-01  2.000E+01  2.000E+04 -3.213E-02
   1   15    4     1     4    1.0703E+05 -6.2450E+02   1.0765E+05  0.000E+00  0.000E+00  0.000E+00  4.69805E+01  1.509E-01  2.000E+01  2.000E+04 -3.123E-02
   1   16    5     1     5    1.0765E+05 -2.3561E+03   1.1001E+05  0.000E+00  0.000E+00  0.000E+00  4.65045E+01  1.522E-01  2.000E+01  2.000E+04 -1.178E-01
   1   16    6     1     6    1.1001E+05 -1.4224E+03   1.1143E+05  0.000E+00  0.000E+00  0.000E+00  4.60288E+01  1.538E-01  2.000E+01  2.000E+04 -7.112E-02
   1   16    7     1     7    1.1143E+05 -1.3640E+03   1.1280E+05  0.000E+00  0.000E+00  0.000E+00  4.55527E+01  1.549E-01  2.000E+01  2.000E+04 -6.820E-02
   1   16    8     1     8    1.1280E+05 -1.3183E+03   1.1411E+05  0.000E+00  0.000E+00  0.000E+00  4.50765E+01  1.560E-01  2.000E+01  2.000E+04 -6.592E-02
   1   16    9     1     9    1.1411E+05 -1.2519E+03   1.1537E+05  0.000E+00  0.000E+00  0.000E+00  4.46003E+01  1.571E-01  2.000E+01  2.000E+04 -6.259E-02
   1   16   10     1    10    1.1537E+05 -1.1535E+03   1.1652E+05  0.000E+00  0.000E+00  0.000E+00  4.41240E+01  1.581E-01  2.000E+01  2.000E+04 -5.767E-02
   1   16   11     1    11    1.1652E+05 -1.0282E+03   1.1755E+05  0.000E+00  0.000E+00  0.000E+00  4.36476E+01  1.590E-01  2.000E+01  2.000E+04 -5.141E-02
   1   16   12     1    12    1.1755E+05 -1.4655E+03   1.1901E+05  0.000E+00  0.000E+00  0.000E+00  4.31713E+01  1.600E-01  2.000E+01  2.000E+04 -7.327E-02
   1   15   13     1    13    1.1901E+05 -1.3418E+03   1.2036E+05  0.000E+00  0.000E+00  0.000E+00  4.26952E+01  1.611E-01  2.000E+01  2.000E+04 -6.709E-02
   1   14   14     1    14    1.2036E+05 -1.5702E+03   1.2193E+05  0.000E+00  0.000E+00  0.000E+00  4.22191E+01  1.623E-01  2.000E+01  2.000E+04 -7.851E-02
   1   13   15     1    15    1.2193E+05 -1.6656E+03   1.2359E+05  0.000E+00  0.000E+00  0.000E+00  4.17431E+01  1.636E-01  2.000E+01  2.000E+04 -8.328E-02
   1   12   16     1    16    1.2359E+05 -1.2473E+03   1.2484E+05  0.000E+00  0.000E+00  0.000E+00  4.12670E+01  1.648E-01  2.000E+01  2.000E+04 -6.236E-02
   1   12   17     1    17    1.2484E+05 -4.2877E+00   1.2484E+05  0.000E+00  0.000E+00  0.000E+00  4.07902E+01  1.652E-01  2.000E+01  2.000E+04 -2.144E-04
   1   12   18     1    18    1.2484E+05 -4.9407E+02   1.2534E+05  0.000E+00  0.000E+00  0.000E+00  4.03132E+01  1.654E-01  2.000E+01  2.000E+04 -2.470E-02
   1   12   19     1    19    1.2534E+05 -1.3384E+03   1.2668E+05  0.000E+00  0.000E+00  0.000E+00  3.98366E+01  1.662E-01  2.000E+01  2.000E+04 -6.692E-02
   1   13   20     1    20    1.2668E+05 -1.5033E+03   1.2818E+05  0.000E+00  0.000E+00  0.000E+00  3.93605E+01  1.673E-01  2.000E+01  2.000E+04 -7.517E-02
   1   14   21     1    21    1.2818E+05 -1.5835E+03   1.2976E+05  0.000E+00  0.000E+00  0.000E+00  3.88844E+01  1.685E-01  2.000E+01  2.000E+04 -7.917E-02
   1   14   22     1    22    1.2976E+05  4.8047E+03   1.2496E+05  0.000E+00  0.000E+00  0.000E+00  3.84059E+01  1.672E-01  2.000E+01  2.000E+04  2.402E-01
   1    9   30     2     1    5.0000E+04 -8.7830E+02   5.0878E+04  0.000E+00  0.000E+00  0.000E+00  4.02415E+01  1.165E-01  2.000E+01  2.000E+04 -4.391E-02
   1    9   29     2     2    5.0878E+04 -1.1786E+03   5.2057E+04  0.000E+00  0.000E+00  0.000E+00  3.99929E+01  1.179E-01  2.000E+01  2.000E+04 -5.893E-02
   1    9   28     2     3    5.2057E+04 -1.4402E+03   5.3497E+04  0.000E+00  0.000E+00  0.000E+00  3.97447E+01  1.197E-01  2.000E+01  2.000E+04 -7.201E-02
   1    9   27     2     4    5.3497E+04 -2.8225E+03   5.6320E+04  0.000E+00  0.000E+00  0.000E+00  3.94976E+01  1.226E-01  2.000E+01  2.000E+04 -1.411E-01
   1   10   26     2     5    5.6320E+04 -1.8295E+03   5.8149E+04  0.000E+00  0.000E+00  0.000E+00  3.92507E+01  1.257E-01  2.000E+01  2.000E+04 -9.147E-02
   1   11   25     2     6    5.8149E+04 -1.5171E+03   5.9666E+04  0.000E+00  0.000E+00  0.000E+00  3.90028E+01  1.278E-01  2.000E+01  2.000E+04 -7.585E-02
   1   12   24     2     7    5.9666E+04 -1.4914E+03   6.1158E+04  0.000E+00  0.000E+00  0.000E+00  3.87548E+01  1.298E-01  2.000E+01  2.000E+04 -7.457E-02
   1   13   23     2     8    6.1158E+04 -2.1040E+02   6.1368E+04  0.000E+00  0.000E+00  0.000E+00  3.85059E+01  1.309E-01  2.000E+01  2.000E+04 -1.052E-02
   1   14   22     2     9    6.1368E+04  1.7847E+03   5.9583E+04  0.000E+00  0.000E+00  0.000E+00  3.82549E+01  1.299E-01  2.000E+01  2.000E+04  8.923E-02
   1   14   22     3     1    1.8454E+05 -8.6857E+03   1.9323E+05  0.000E+00  0.000E+00  0.000E+00  3.77314E+01  1.758E-01  2.000E+01  2.000E+04 -4.343E-01
   1   15   23     3     2    1.9323E+05 -5.6769E+02   1.9379E+05  0.000E+00  0.000E+00  0.000E+00  3.68450E+01  1.784E-01  2.000E+01  2.000E+04 -2.838E-02
   1   15   24     3     3    1.9379E+05 -3.2182E+02   1.9412E+05  0.000E+00  0.000E+00  0.000E+00  3.59564E+01  1.786E-01  2.000E+01  2.000E+04 -1.609E-02
   1   15   25     3     4    1.9412E+05 -3.2087E+02   1.9444E+05  0.000E+00  0.000E+00  0.000E+00  3.50677E+01  1.788E-01  2.000E+01  2.000E+04 -1.604E-02
   1   15   26     3     5    1.9444E+05 -3.6381E+02   1.9480E+05  0.000E+00  0.000E+00  0.000E+00  3.41790E+01  1.790E-01  2.000E+01  2.000E+04 -1.819E-02
   1   16   27     3     6    1.9480E+05 -4.2282E+02   1.9522E+05  0.000E+00  0.000E+00  0.000E+00  3.32903E+01  1.792E-01  2.000E+01  2.000E+04 -2.114E-02
   1   17   28     3     7    1.9522E+05 -1.7976E+03   1.9702E+05  0.000E+00  0.000E+00  0.000E+00  3.24020E+01  1.798E-01  2.000E+01  2.000E+04 -8.988E-02
   1   18   29     3     8    1.9702E+05 -3.4214E+03   2.0044E+05  0.000E+00  0.000E+00  0.000E+00  3.15146E+01  1.812E-01  2.000E+01  2.000E+04 -1.711E-01
   1   18   30     3     9    2.0044E+05 -3.4801E+03   2.0392E+05  0.000E+00  0.000E+00  0.000E+00  3.06276E+01  1.831E-01  2.000E+01  2.000E+04 -1.740E-01



1
              HEAD IN LAYER   1 AT END OF TIME STEP   1 IN STRESS PERIOD    3
  ---------------------------------------------------------------------------

          1      2      3      4      5      6      7      8      9     10
         11     12     13     14     15     16     17     18     19     20
         21     22     23     24     25     26     27     28     29     30
 .........................................................................
   1  ****** ****** ****** ****** ****** ****** ****** ****** ****** ******
      ****** ****** ****** ****** ****** ****** ****** ****** ****** ******
      ****** ****** ****** ****** ****** ****** ****** ****** ****** ******
   2  ****** ****** ****** ****** ****** ****** ****** ****** ****** ******
      ****** ****** ****** ****** ****** ****** ****** ****** ****** ******
      ****** ****** ****** ****** ****** ****** ****** ****** ****** ******
   3  ****** ****** ****** ****** ****** ****** ****** ****** ****** ******
      ****** ****** ****** ****** ****** ****** ****** ****** ****** ******
      ****** ****** ****** ****** ****** ****** ****** ****** ****** ******
   4  ****** ****** ****** ****** ****** ****** ****** ****** ****** ******
      ****** ****** ****** ****** ****** ****** ****** ****** ****** ******
      ****** ****** ****** ****** ****** ****** ****** ****** ****** ******
   5  ****** ****** ****** ****** ****** ****** ****** ****** ****** ******
      ****** ****** ****** ****** ****** ****** ****** ****** ****** ******
      ****** ****** ****** ****** ****** ****** ****** ****** ****** ******
   6  ****** ****** ****** ****** ****** ****** ****** ****** ****** ******
      ****** ****** ****** ****** ****** ****** ****** ****** ****** ******
      ****** ****** ****** ****** ****** ****** ****** ****** ****** ******
   7  ****** ****** ****** ****** ****** ****** ****** ****** ****** ******
      ****** ****** ****** ****** ****** ****** ****** ****** ****** ******
      ****** ****** ****** ****** ****** ****** ****** ****** ****** ******
   8  ****** ****** ****** ****** ****** ****** ****** ****** ****** ******
      ****** ****** ****** ****** ****** ****** ****** ****** ****** ******
      ****** ****** ****** ****** ****** ****** ****** ****** ****** ******
   9  ****** ****** ****** ****** ****** ****** ****** ****** ****** ******
      ****** ****** ****** ****** ****** ****** ****** ****** ****** ******
      ****** ****** ****** ****** ****** ****** ****** ****** ****** ******
  10  ****** ****** ****** ****** ****** ****** ****** ****** ****** ******
      ****** ****** ****** ****** ****** ****** ****** ****** ****** ******
      ****** ****** ****** ****** ****** ****** ****** ****** ****** ******
  11  ****** ****** ****** ****** ****** ****** ****** ****** ****** ******
      ****** ****** ****** ****** ****** ****** ****** ****** ****** ******
      ****** ****** ****** ****** ****** ****** ****** ****** ****** ******
  12  ****** ****** ****** ****** ****** ****** ****** ****** ****** ******
      ****** ****** ****** ****** ****** ****** ****** ****** ****** ******
      ****** ****** ****** ****** ****** ****** ****** ****** ****** ******
  13  ****** ****** ****** ****** ****** ****** ****** ****** ****** ******
      ****** ****** ****** ****** ****** ****** ****** ****** ****** ******
      ****** ****** ****** ****** ****** ****** ****** ****** ****** ******
  14  ****** ****** ****** ****** ****** ****** ****** ****** ****** ******
      ****** ****** ****** ****** ****** ****** ****** ****** ****** ******
      ****** ****** ****** ****** ****** ****** ****** ****** ****** ******
  15  ****** ****** ****** ****** ****** ****** ****** ****** ****** ******
      ****** ****** ****** ****** ****** ****** ****** ****** ****** ******
      ****** ****** ****** ****** ****** ****** ****** ****** ****** ******
  16  ****** ****** ****** ****** ****** ****** ****** ****** ****** ******
      ****** ****** ****** ****** ****** ****** ****** ****** ****** ******
      ****** ****** ****** ****** ****** ****** ****** ****** ****** ******
  17  ****** ****** ****** ****** ****** ****** ****** ****** ****** ******
      ****** ****** ****** ****** ****** ****** ****** ****** ****** ******
      ****** ****** ****** ****** ****** ****** ****** ****** ****** ******
  18  ****** ****** ****** ****** ****** ****** ****** ****** ****** ******
      ****** ****** ****** ****** ****** ****** ****** ****** ****** ******
      ****** ****** ****** ****** ****** ****** ****** ****** ****** ******
  19  ****** ****** ****** ****** ****** ****** ****** ****** ****** ******
      ****** ****** ****** ****** ****** ****** ****** ****** ****** ******
      ****** ****** ****** ****** ****** ****** ****** ****** ****** ******
  20  ****** ****** ****** ****** ****** ****** ****** ****** ****** ******
      ****** ****** ****** ****** ****** ****** ****** ****** ****** ******
      ****** ****** ****** ****** ****** ****** ****** ****** ****** ******
  21  ****** ****** ****** ****** ****** ****** ****** ****** ****** ******
      ****** ****** ****** ****** ****** ****** ****** ****** ****** ******
      ****** ****** ****** ****** ****** ****** ****** ****** ****** ******
  22  ****** ****** ****** ****** ****** ****** ****** ****** ****** ******
      ****** ****** ****** ****** ****** ****** ****** ****** ****** ******
      ****** ****** ****** ****** ****** ****** ****** ****** ****** ******
  23  ****** ****** ****** ****** ****** ****** ****** ****** ****** ******
      ****** ****** ****** ****** ****** ****** ****** ****** ****** ******
      ****** ****** ****** ****** ****** ****** ****** ****** ****** ******
  24  ****** ****** ****** ****** ****** ****** ****** ****** ****** ******
      ****** ****** ****** ****** ****** ****** ****** ****** ****** ******
      ****** ****** ****** ****** ****** ****** ****** ****** ****** ******
  25  ****** ****** ****** ****** ****** ****** ****** ****** ****** ******
      ****** ****** ****** ****** ****** ****** ****** ****** ****** ******
      ****** ****** ****** ****** ****** ****** ****** ****** ****** ******

 HEAD WILL BE SAVED ON UNIT   51 AT END OF TIME STEP    1, STRESS PERIOD    3
1
  VOLUMETRIC BUDGET FOR ENTIRE MODEL AT END OF TIME STEP    1, STRESS PERIOD   3
  ------------------------------------------------------------------------------

     CUMULATIVE VOLUMES      L**3       RATES FOR THIS TIME STEP      L**3/T
     ------------------                 ------------------------

           IN:                                      IN:
           ---                                      ---
             STORAGE =    28566261.9669               STORAGE =       57556.5687
       CONSTANT HEAD =     5255260.4294         CONSTANT HEAD =       26781.4355
               WELLS =           0.0000                 WELLS =           0.0000
            RECHARGE =     6292800.0000              RECHARGE =           0.0000
      STREAM LEAKAGE =     1482809.0716        STREAM LEAKAGE =        6589.3936

            TOTAL IN =    41597131.4678              TOTAL IN =       90927.3977

          OUT:                                     OUT:
          ----                                     ----
             STORAGE =           0.0000               STORAGE =           0.0000
       CONSTANT HEAD =           0.0000         CONSTANT HEAD =           0.0000
               WELLS =     8333860.4078                 WELLS =       30415.5489
            RECHARGE =           0.0000              RECHARGE =           0.0000
      STREAM LEAKAGE =    33263273.0229        STREAM LEAKAGE =       60511.8564

           TOTAL OUT =    41597133.4308             TOTAL OUT =       90927.4053

            IN - OUT =          -1.9629              IN - OUT =      -7.5497E-03

 PERCENT DISCREPANCY =          -0.00     PERCENT DISCREPANCY =          -0.00






         TIME SUMMARY AT END OF TIME STEP    1 IN STRESS PERIOD    3
                    SECONDS     MINUTES      HOURS       DAYS        YEARS
                    -----------------------------------------------------------
   TIME STEP LENGTH 7.86240E+06 1.31040E+05  2184.0      91.000     0.24914    
 STRESS PERIOD TIME 7.86240E+06 1.31040E+05  2184.0      91.000     0.24914    
         TOTAL TIME 2.36736E+07 3.94560E+05  6576.0      274.00     0.75017    
1
1
                            STRESS PERIOD NO.    4, LENGTH =   91.00000    
                            -----------------------------------------------

                              NUMBER OF TIME STEPS =     1

                               MULTIPLIER FOR DELT =     1.500

                            INITIAL TIME STEP SIZE =   91.00000    

 WELL NO.  LAYER   ROW   COL   STRESS RATE         
 --------------------------------------------------
      1      1     10     17     -0.1009E+05
      2      1     11     19      -420.2    
      3      1     19     16      -9508.    
      4      1      6     15     -0.1040E+05

      4 WELLS

                 RECHARGE =  1.000000E-03

 REUSING STREAM SEGMENT DATA FROM LAST STRESS PERIOD
 
 SOLVING FOR HEAD 


     6 CALLS TO PCG ROUTINE FOR TIME STEP   1 IN STRESS PERIOD    4
    23 TOTAL ITERATIONS

 OUTPUT CONTROL FOR STRESS PERIOD    4   TIME STEP    1
    SAVE BUDGET
    SAVE HEAD FOR ALL LAYERS
    PRINT HEAD FOR ALL LAYERS
 UBDSV2 SAVING "STREAMFLOW OUT  " ON UNIT  50 AT TIME STEP  1, STRESS PERIOD   4



 STREAM LISTING     PERIOD      4   STEP        1

 LAYER ROW COL. STREAM  RCH.  FLOW INTO     FLOW TO   FLOW OUT OF   OVRLND.     DIRECT     STREAM       STREAM     STREAM     STREAM   STREAMBED  STREAMBED
                SEG.NO.  NO.  STRM. RCH.    AQUIFER    STRM. RCH.    RUNOFF     PRECIP       ET          HEAD       DEPTH      WIDTH   CONDCTNC.   GRADIENT

   1   13    1     1     1    1.0000E+05 -2.3684E+03   1.0237E+05  0.000E+00  0.000E+00  0.000E+00  4.84070E+01  1.457E-01  2.000E+01  2.000E+04 -1.184E-01
   1   13    2     1     2    1.0237E+05 -3.4286E+03   1.0580E+05  0.000E+00  0.000E+00  0.000E+00  4.79323E+01  1.482E-01  2.000E+01  2.000E+04 -1.714E-01
   1   14    3     1     3    1.0580E+05 -6.0927E+02   1.0641E+05  0.000E+00  0.000E+00  0.000E+00  4.74567E+01  1.499E-01  2.000E+01  2.000E+04 -3.046E-02
   1   15    4     1     4    1.0641E+05 -5.8180E+02   1.0699E+05  0.000E+00  0.000E+00  0.000E+00  4.69799E+01  1.504E-01  2.000E+01  2.000E+04 -2.909E-02
   1   16    5     1     5    1.0699E+05 -2.0378E+03   1.0903E+05  0.000E+00  0.000E+00  0.000E+00  4.65038E+01  1.515E-01  2.000E+01  2.000E+04 -1.019E-01
   1   16    6     1     6    1.0903E+05 -1.2625E+03   1.1029E+05  0.000E+00  0.000E+00  0.000E+00  4.60279E+01  1.529E-01  2.000E+01  2.000E+04 -6.313E-02
   1   16    7     1     7    1.1029E+05 -1.2142E+03   1.1150E+05  0.000E+00  0.000E+00  0.000E+00  4.55516E+01  1.539E-01  2.000E+01  2.000E+04 -6.071E-02
   1   16    8     1     8    1.1150E+05 -1.1710E+03   1.1267E+05  0.000E+00  0.000E+00  0.000E+00  4.50754E+01  1.549E-01  2.000E+01  2.000E+04 -5.855E-02
   1   16    9     1     9    1.1267E+05 -1.1055E+03   1.1378E+05  0.000E+00  0.000E+00  0.000E+00  4.45990E+01  1.558E-01  2.000E+01  2.000E+04 -5.527E-02
   1   16   10     1    10    1.1378E+05 -1.0085E+03   1.1479E+05  0.000E+00  0.000E+00  0.000E+00  4.41226E+01  1.567E-01  2.000E+01  2.000E+04 -5.042E-02
   1   16   11     1    11    1.1479E+05 -8.8038E+02   1.1567E+05  0.000E+00  0.000E+00  0.000E+00  4.36461E+01  1.575E-01  2.000E+01  2.000E+04 -4.402E-02
   1   16   12     1    12    1.1567E+05 -1.1533E+03   1.1682E+05  0.000E+00  0.000E+00  0.000E+00  4.31697E+01  1.583E-01  2.000E+01  2.000E+04 -5.767E-02
   1   15   13     1    13    1.1682E+05 -1.0396E+03   1.1786E+05  0.000E+00  0.000E+00  0.000E+00  4.26933E+01  1.592E-01  2.000E+01  2.000E+04 -5.198E-02
   1   14   14     1    14    1.1786E+05 -1.2350E+03   1.1910E+05  0.000E+00  0.000E+00  0.000E+00  4.22170E+01  1.601E-01  2.000E+01  2.000E+04 -6.175E-02
   1   13   15     1    15    1.1910E+05 -1.2948E+03   1.2039E+05  0.000E+00  0.000E+00  0.000E+00  4.17407E+01  1.612E-01  2.000E+01  2.000E+04 -6.474E-02
   1   12   16     1    16    1.2039E+05 -7.5798E+02   1.2115E+05  0.000E+00  0.000E+00  0.000E+00  4.12643E+01  1.620E-01  2.000E+01  2.000E+04 -3.790E-02
   1   12   17     1    17    1.2115E+05  2.8753E+02   1.2086E+05  0.000E+00  0.000E+00  0.000E+00  4.07872E+01  1.622E-01  2.000E+01  2.000E+04  1.438E-02
   1   12   18     1    18    1.2086E+05 -2.2530E+02   1.2109E+05  0.000E+00  0.000E+00  0.000E+00  4.03099E+01  1.622E-01  2.000E+01  2.000E+04 -1.126E-02
   1   12   19     1    19    1.2109E+05 -1.0081E+03   1.2209E+05  0.000E+00  0.000E+00  0.000E+00  3.98331E+01  1.627E-01  2.000E+01  2.000E+04 -5.041E-02
   1   13   20     1    20    1.2209E+05 -1.2933E+03   1.2339E+05  0.000E+00  0.000E+00  0.000E+00  3.93568E+01  1.636E-01  2.000E+01  2.000E+04 -6.466E-02
   1   14   21     1    21    1.2339E+05 -1.3181E+03   1.2471E+05  0.000E+00  0.000E+00  0.000E+00  3.88805E+01  1.646E-01  2.000E+01  2.000E+04 -6.591E-02
   1   14   22     1    22    1.2471E+05  4.8438E+03   1.1986E+05  0.000E+00  0.000E+00  0.000E+00  3.84018E+01  1.632E-01  2.000E+01  2.000E+04  2.422E-01
   1    9   30     2     1    5.0000E+04 -7.7968E+02   5.0780E+04  0.000E+00  0.000E+00  0.000E+00  4.02414E+01  1.164E-01  2.000E+01  2.000E+04 -3.898E-02
   1    9   29     2     2    5.0780E+04 -1.0716E+03   5.1851E+04  0.000E+00  0.000E+00  0.000E+00  3.99927E+01  1.177E-01  2.000E+01  2.000E+04 -5.358E-02
   1    9   28     2     3    5.1851E+04 -1.3096E+03   5.3161E+04  0.000E+00  0.000E+00  0.000E+00  3.97443E+01  1.193E-01  2.000E+01  2.000E+04 -6.548E-02
   1    9   27     2     4    5.3161E+04 -2.5212E+03   5.5682E+04  0.000E+00  0.000E+00  0.000E+00  3.94969E+01  1.219E-01  2.000E+01  2.000E+04 -1.261E-01
   1   10   26     2     5    5.5682E+04 -1.6432E+03   5.7325E+04  0.000E+00  0.000E+00  0.000E+00  3.92497E+01  1.247E-01  2.000E+01  2.000E+04 -8.216E-02
   1   11   25     2     6    5.7325E+04 -1.3717E+03   5.8697E+04  0.000E+00  0.000E+00  0.000E+00  3.90017E+01  1.267E-01  2.000E+01  2.000E+04 -6.859E-02
   1   12   24     2     7    5.8697E+04 -1.3624E+03   6.0060E+04  0.000E+00  0.000E+00  0.000E+00  3.87535E+01  1.285E-01  2.000E+01  2.000E+04 -6.812E-02
   1   13   23     2     8    6.0060E+04 -2.3108E+02   6.0291E+04  0.000E+00  0.000E+00  0.000E+00  3.85045E+01  1.295E-01  2.000E+01  2.000E+04 -1.155E-02
   1   14   22     2     9    6.0291E+04  1.8753E+03   5.8415E+04  0.000E+00  0.000E+00  0.000E+00  3.82534E+01  1.284E-01  2.000E+01  2.000E+04  9.377E-02
   1   14   22     3     1    1.7828E+05 -8.6367E+03   1.8691E+05  0.000E+00  0.000E+00  0.000E+00  3.77278E+01  1.723E-01  2.000E+01  2.000E+04 -4.318E-01
   1   15   23     3     2    1.8691E+05 -5.3803E+02   1.8745E+05  0.000E+00  0.000E+00  0.000E+00  3.68415E+01  1.748E-01  2.000E+01  2.000E+04 -2.690E-02
   1   15   24     3     3    1.8745E+05 -3.1890E+02   1.8777E+05  0.000E+00  0.000E+00  0.000E+00  3.59529E+01  1.751E-01  2.000E+01  2.000E+04 -1.594E-02
   1   15   25     3     4    1.8777E+05 -3.1855E+02   1.8809E+05  0.000E+00  0.000E+00  0.000E+00  3.50642E+01  1.753E-01  2.000E+01  2.000E+04 -1.593E-02
   1   15   26     3     5    1.8809E+05 -3.7207E+02   1.8846E+05  0.000E+00  0.000E+00  0.000E+00  3.41755E+01  1.755E-01  2.000E+01  2.000E+04 -1.860E-02
   1   16   27     3     6    1.8846E+05 -4.2154E+02   1.8888E+05  0.000E+00  0.000E+00  0.000E+00  3.32868E+01  1.757E-01  2.000E+01  2.000E+04 -2.108E-02
   1   17   28     3     7    1.8888E+05 -1.7274E+03   1.9061E+05  0.000E+00  0.000E+00  0.000E+00  3.23985E+01  1.763E-01  2.000E+01  2.000E+04 -8.637E-02
   1   18   29     3     8    1.9061E+05 -3.1883E+03   1.9380E+05  0.000E+00  0.000E+00  0.000E+00  3.15110E+01  1.776E-01  2.000E+01  2.000E+04 -1.594E-01
   1   18   30     3     9    1.9380E+05 -3.3629E+03   1.9716E+05  0.000E+00  0.000E+00  0.000E+00  3.06239E+01  1.795E-01  2.000E+01  2.000E+04 -1.681E-01



1
              HEAD IN LAYER   1 AT END OF TIME STEP   1 IN STRESS PERIOD    4
  ---------------------------------------------------------------------------

          1      2      3      4      5      6      7      8      9     10
         11     12     13     14     15     16     17     18     19     20
         21     22     23     24     25     26     27     28     29     30
 .........................................................................
   1  ****** ****** ****** ****** ****** ****** ****** ****** ****** ******
      ****** ****** ****** ****** ****** ****** ****** ****** ****** ******
      ****** ****** ****** ****** ****** ****** ****** ****** ****** ******
   2  ****** ****** ****** ****** ****** ****** ****** ****** ****** ******
      ****** ****** ****** ****** ****** ****** ****** ****** ****** ******
      ****** ****** ****** ****** ****** ****** ****** ****** ****** ******
   3  ****** ****** ****** ****** ****** ****** ****** ****** ****** ******
      ****** ****** ****** ****** ****** ****** ****** ****** ****** ******
      ****** ****** ****** ****** ****** ****** ****** ****** ****** ******
   4  ****** ****** ****** ****** ****** ****** ****** ****** ****** ******
      ****** ****** ****** ****** ****** ****** ****** ****** ****** ******
      ****** ****** ****** ****** ****** ****** ****** ****** ****** ******
   5  ****** ****** ****** ****** ****** ****** ****** ****** ****** ******
      ****** ****** ****** ****** ****** ****** ****** ****** ****** ******
      ****** ****** ****** ****** ****** ****** ****** ****** ****** ******
   6  ****** ****** ****** ****** ****** ****** ****** ****** ****** ******
      ****** ****** ****** ****** ****** ****** ****** ****** ****** ******
      ****** ****** ****** ****** ****** ****** ****** ****** ****** ******
   7  ****** ****** ****** ****** ****** ****** ****** ****** ****** ******
      ****** ****** ****** ****** ****** ****** ****** ****** ****** ******
      ****** ****** ****** ****** ****** ****** ****** ****** ****** ******
   8  ****** ****** ****** ****** ****** ****** ****** ****** ****** ******
      ****** ****** ****** ****** ****** ****** ****** ****** ****** ******
      ****** ****** ****** ****** ****** ****** ****** ****** ****** ******
   9  ****** ****** ****** ****** ****** ****** ****** ****** ****** ******
      ****** ****** ****** ****** ****** ****** ****** ****** ****** ******
      ****** ****** ****** ****** ****** ****** ****** ****** ****** ******
  10  ****** ****** ****** ****** ****** ****** ****** ****** ****** ******
      ****** ****** ****** ****** ****** ****** ****** ****** ****** ******
      ****** ****** ****** ****** ****** ****** ****** ****** ****** ******
  11  ****** ****** ****** ****** ****** ****** ****** ****** ****** ******
      ****** ****** ****** ****** ****** ****** ****** ****** ****** ******
      ****** ****** ****** ****** ****** ****** ****** ****** ****** ******
  12  ****** ****** ****** ****** ****** ****** ****** ****** ****** ******
      ****** ****** ****** ****** ****** ****** ****** ****** ****** ******
      ****** ****** ****** ****** ****** ****** ****** ****** ****** ******
  13  ****** ****** ****** ****** ****** ****** ****** ****** ****** ******
      ****** ****** ****** ****** ****** ****** ****** ****** ****** ******
      ****** ****** ****** ****** ****** ****** ****** ****** ****** ******
  14  ****** ****** ****** ****** ****** ****** ****** ****** ****** ******
      ****** ****** ****** ****** ****** ****** ****** ****** ****** ******
      ****** ****** ****** ****** ****** ****** ****** ****** ****** ******
  15  ****** ****** ****** ****** ****** ****** ****** ****** ****** ******
      ****** ****** ****** ****** ****** ****** ****** ****** ****** ******
      ****** ****** ****** ****** ****** ****** ****** ****** ****** ******
  16  ****** ****** ****** ****** ****** ****** ****** ****** ****** ******
      ****** ****** ****** ****** ****** ****** ****** ****** ****** ******
      ****** ****** ****** ****** ****** ****** ****** ****** ****** ******
  17  ****** ****** ****** ****** ****** ****** ****** ****** ****** ******
      ****** ****** ****** ****** ****** ****** ****** ****** ****** ******
      ****** ****** ****** ****** ****** ****** ****** ****** ****** ******
  18  ****** ****** ****** ****** ****** ****** ****** ****** ****** ******
      ****** ****** ****** ****** ****** ****** ****** ****** ****** ******
      ****** ****** ****** ****** ****** ****** ****** ****** ****** ******
  19  ****** ****** ****** ****** ****** ****** ****** ****** ****** ******
      ****** ****** ****** ****** ****** ****** ****** ****** ****** ******
      ****** ****** ****** ****** ****** ****** ****** ****** ****** ******
  20  ****** ****** ****** ****** ****** ****** ****** ****** ****** ******
      ****** ****** ****** ****** ****** ****** ****** ****** ****** ******
      ****** ****** ****** ****** ****** ****** ****** ****** ****** ******
  21  ****** ****** ****** ****** ****** ****** ****** ****** ****** ******
      ****** ****** ****** ****** ****** ****** ****** ****** ****** ******
      ****** ****** ****** ****** ****** ****** ****** ****** ****** ******
  22  ****** ****** ****** ****** ****** ****** ****** ****** ****** ******
      ****** ****** ****** ****** ****** ****** ****** ****** ****** ******
      ****** ****** ****** ****** ****** ****** ****** ****** ****** ******
  23  ****** ****** ****** ****** ****** ****** ****** ****** ****** ******
      ****** ****** ****** ****** ****** ****** ****** ****** ****** ******
      ****** ****** ****** ****** ****** ****** ****** ****** ****** ******
  24  ****** ****** ****** ****** ****** ****** ****** ****** ****** ******
      ****** ****** ****** ****** ****** ****** ****** ****** ****** ******
      ****** ****** ****** ****** ****** ****** ****** ****** ****** ******
  25  ****** ****** ****** ****** ****** ****** ****** ****** ****** ******
      ****** ****** ****** ****** ****** ****** ****** ****** ****** ******
      ****** ****** ****** ****** ****** ****** ****** ****** ****** ******

 HEAD WILL BE SAVED ON UNIT   51 AT END OF TIME STEP    1, STRESS PERIOD    4
1
  VOLUMETRIC BUDGET FOR ENTIRE MODEL AT END OF TIME STEP    1, STRESS PERIOD   4
  ------------------------------------------------------------------------------

     CUMULATIVE VOLUMES      L**3       RATES FOR THIS TIME STEP      L**3/T
     ------------------                 ------------------------

           IN:                                      IN:
           ---                                      ---
             STORAGE =    30418757.9853               STORAGE =       20357.0991
       CONSTANT HEAD =     7951889.5675         CONSTANT HEAD =       29633.2872
               WELLS =           0.0000                 WELLS =           0.0000
            RECHARGE =     8804400.0000              RECHARGE =       27600.0000
      STREAM LEAKAGE =     2120414.4098        STREAM LEAKAGE =        7006.6521

            TOTAL IN =    49295461.9625              TOTAL IN =       84597.0384

          OUT:                                     OUT:
          ----                                     ----
             STORAGE =        1181.7108               STORAGE =          12.9858
       CONSTANT HEAD =           0.0000         CONSTANT HEAD =           0.0000
               WELLS =    11101675.3608                 WELLS =       30415.5489
            RECHARGE =           0.0000              RECHARGE =           0.0000
      STREAM LEAKAGE =    38192606.9367        STREAM LEAKAGE =       54168.5045

           TOTAL OUT =    49295464.0083             TOTAL OUT =       84597.0393

            IN - OUT =          -2.0458              IN - OUT =      -9.1047E-04

 PERCENT DISCREPANCY =          -0.00     PERCENT DISCREPANCY =          -0.00






         TIME SUMMARY AT END OF TIME STEP    1 IN STRESS PERIOD    4
                    SECONDS     MINUTES      HOURS       DAYS        YEARS
                    -----------------------------------------------------------
   TIME STEP LENGTH 7.86240E+06 1.31040E+05  2184.0      91.000     0.24914    
 STRESS PERIOD TIME 7.86240E+06 1.31040E+05  2184.0      91.000     0.24914    
         TOTAL TIME 3.15360E+07 5.25600E+05  8760.0      365.00     0.99932    
1
1
                            STRESS PERIOD NO.    5, LENGTH =   92.00000    
                            -----------------------------------------------

                              NUMBER OF TIME STEPS =     1

                               MULTIPLIER FOR DELT =     1.500

                            INITIAL TIME STEP SIZE =   92.00000    

 WELL NO.  LAYER   ROW   COL   STRESS RATE         
 --------------------------------------------------
      1      1     10     17     -0.1009E+05
      2      1     11     19      -420.2    
      3      1     19     16      -9508.    
      4      1      6     15     -0.1040E+05

      4 WELLS

                 RECHARGE =  5.000000E-04

 REUSING STREAM SEGMENT DATA FROM LAST STRESS PERIOD
 
 SOLVING FOR HEAD 


     7 CALLS TO PCG ROUTINE FOR TIME STEP   1 IN STRESS PERIOD    5
    26 TOTAL ITERATIONS

 OUTPUT CONTROL FOR STRESS PERIOD    5   TIME STEP    1
    SAVE BUDGET
    SAVE HEAD FOR ALL LAYERS
    PRINT HEAD FOR ALL LAYERS
 UBDSV2 SAVING "STREAMFLOW OUT  " ON UNIT  50 AT TIME STEP  1, STRESS PERIOD   5



 STREAM LISTING     PERIOD      5   STEP        1

 LAYER ROW COL. STREAM  RCH.  FLOW INTO     FLOW TO   FLOW OUT OF   OVRLND.     DIRECT     STREAM       STREAM     STREAM     STREAM   STREAMBED  STREAMBED
                SEG.NO.  NO.  STRM. RCH.    AQUIFER    STRM. RCH.    RUNOFF     PRECIP       ET          HEAD       DEPTH      WIDTH   CONDCTNC.   GRADIENT

   1   13    1     1     1    1.0000E+05 -1.9218E+03   1.0192E+05  0.000E+00  0.000E+00  0.000E+00  4.84068E+01  1.455E-01  2.000E+01  2.000E+04 -9.609E-02
   1   13    2     1     2    1.0192E+05 -2.9242E+03   1.0485E+05  0.000E+00  0.000E+00  0.000E+00  4.79317E+01  1.476E-01  2.000E+01  2.000E+04 -1.462E-01
   1   14    3     1     3    1.0485E+05 -4.8275E+02   1.0533E+05  0.000E+00  0.000E+00  0.000E+00  4.74558E+01  1.490E-01  2.000E+01  2.000E+04 -2.414E-02
   1   15    4     1     4    1.0533E+05 -4.4937E+02   1.0578E+05  0.000E+00  0.000E+00  0.000E+00  4.69790E+01  1.494E-01  2.000E+01  2.000E+04 -2.247E-02
   1   16    5     1     5    1.0578E+05 -1.5974E+03   1.0738E+05  0.000E+00  0.000E+00  0.000E+00  4.65026E+01  1.503E-01  2.000E+01  2.000E+04 -7.987E-02
   1   16    6     1     6    1.0738E+05 -1.0034E+03   1.0838E+05  0.000E+00  0.000E+00  0.000E+00  4.60264E+01  1.514E-01  2.000E+01  2.000E+04 -5.017E-02
   1   16    7     1     7    1.0838E+05 -9.6483E+02   1.0934E+05  0.000E+00  0.000E+00  0.000E+00  4.55499E+01  1.522E-01  2.000E+01  2.000E+04 -4.824E-02
   1   16    8     1     8    1.0934E+05 -9.2470E+02   1.1027E+05  0.000E+00  0.000E+00  0.000E+00  4.50735E+01  1.530E-01  2.000E+01  2.000E+04 -4.623E-02
   1   16    9     1     9    1.1027E+05 -8.6149E+02   1.1113E+05  0.000E+00  0.000E+00  0.000E+00  4.45969E+01  1.537E-01  2.000E+01  2.000E+04 -4.307E-02
   1   16   10     1    10    1.1113E+05 -7.6747E+02   1.1190E+05  0.000E+00  0.000E+00  0.000E+00  4.41203E+01  1.544E-01  2.000E+01  2.000E+04 -3.837E-02
   1   16   11     1    11    1.1190E+05 -6.3839E+02   1.1254E+05  0.000E+00  0.000E+00  0.000E+00  4.36436E+01  1.550E-01  2.000E+01  2.000E+04 -3.192E-02
   1   16   12     1    12    1.1254E+05 -7.1632E+02   1.1325E+05  0.000E+00  0.000E+00  0.000E+00  4.31669E+01  1.556E-01  2.000E+01  2.000E+04 -3.582E-02
   1   15   13     1    13    1.1325E+05 -5.7343E+02   1.1383E+05  0.000E+00  0.000E+00  0.000E+00  4.26902E+01  1.561E-01  2.000E+01  2.000E+04 -2.867E-02
   1   14   14     1    14    1.1383E+05 -7.3411E+02   1.1456E+05  0.000E+00  0.000E+00  0.000E+00  4.22135E+01  1.566E-01  2.000E+01  2.000E+04 -3.671E-02
   1   13   15     1    15    1.1456E+05 -7.6997E+02   1.1533E+05  0.000E+00  0.000E+00  0.000E+00  4.17368E+01  1.573E-01  2.000E+01  2.000E+04 -3.850E-02
   1   12   16     1    16    1.1533E+05 -1.7409E+02   1.1550E+05  0.000E+00  0.000E+00  0.000E+00  4.12599E+01  1.576E-01  2.000E+01  2.000E+04 -8.705E-03
   1   12   17     1    17    1.1550E+05  6.7377E+02   1.1483E+05  0.000E+00  0.000E+00  0.000E+00  4.07824E+01  1.574E-01  2.000E+01  2.000E+04  3.369E-02
   1   12   18     1    18    1.1483E+05  1.4010E+02   1.1469E+05  0.000E+00  0.000E+00  0.000E+00  4.03048E+01  1.571E-01  2.000E+01  2.000E+04  7.005E-03
   1   12   19     1    19    1.1469E+05 -5.6597E+02   1.1526E+05  0.000E+00  0.000E+00  0.000E+00  3.98277E+01  1.573E-01  2.000E+01  2.000E+04 -2.830E-02
   1   13   20     1    20    1.1526E+05 -9.1756E+02   1.1617E+05  0.000E+00  0.000E+00  0.000E+00  3.93511E+01  1.579E-01  2.000E+01  2.000E+04 -4.588E-02
   1   14   21     1    21    1.1617E+05 -9.2191E+02   1.1710E+05  0.000E+00  0.000E+00  0.000E+00  3.88746E+01  1.586E-01  2.000E+01  2.000E+04 -4.610E-02
   1   14   22     1    22    1.1710E+05  4.9235E+03   1.1217E+05  0.000E+00  0.000E+00  0.000E+00  3.83956E+01  1.570E-01  2.000E+01  2.000E+04  2.462E-01
   1    9   30     2     1    5.0000E+04 -5.4173E+02   5.0542E+04  0.000E+00  0.000E+00  0.000E+00  4.02412E+01  1.162E-01  2.000E+01  2.000E+04 -2.709E-02
   1    9   29     2     2    5.0542E+04 -8.2946E+02   5.1371E+04  0.000E+00  0.000E+00  0.000E+00  3.99922E+01  1.172E-01  2.000E+01  2.000E+04 -4.147E-02
   1    9   28     2     3    5.1371E+04 -1.0538E+03   5.2425E+04  0.000E+00  0.000E+00  0.000E+00  3.97435E+01  1.185E-01  2.000E+01  2.000E+04 -5.269E-02
   1    9   27     2     4    5.2425E+04 -2.1119E+03   5.4537E+04  0.000E+00  0.000E+00  0.000E+00  3.94956E+01  1.206E-01  2.000E+01  2.000E+04 -1.056E-01
   1   10   26     2     5    5.4537E+04 -1.2863E+03   5.5823E+04  0.000E+00  0.000E+00  0.000E+00  3.92479E+01  1.229E-01  2.000E+01  2.000E+04 -6.432E-02
   1   11   25     2     6    5.5823E+04 -1.0434E+03   5.6867E+04  0.000E+00  0.000E+00  0.000E+00  3.89995E+01  1.245E-01  2.000E+01  2.000E+04 -5.217E-02
   1   12   24     2     7    5.6867E+04 -1.0609E+03   5.7928E+04  0.000E+00  0.000E+00  0.000E+00  3.87509E+01  1.259E-01  2.000E+01  2.000E+04 -5.305E-02
   1   13   23     2     8    5.7928E+04 -1.5989E+02   5.8087E+04  0.000E+00  0.000E+00  0.000E+00  3.85017E+01  1.267E-01  2.000E+01  2.000E+04 -7.994E-03
   1   14   22     2     9    5.8087E+04  2.0196E+03   5.6068E+04  0.000E+00  0.000E+00  0.000E+00  3.82504E+01  1.254E-01  2.000E+01  2.000E+04  1.010E-01
   1   14   22     3     1    1.6824E+05 -8.5483E+03   1.7679E+05  0.000E+00  0.000E+00  0.000E+00  3.77220E+01  1.665E-01  2.000E+01  2.000E+04 -4.274E-01
   1   15   23     3     2    1.7679E+05 -4.3597E+02   1.7722E+05  0.000E+00  0.000E+00  0.000E+00  3.68357E+01  1.691E-01  2.000E+01  2.000E+04 -2.180E-02
   1   15   24     3     3    1.7722E+05 -2.4516E+02   1.7747E+05  0.000E+00  0.000E+00  0.000E+00  3.59471E+01  1.693E-01  2.000E+01  2.000E+04 -1.226E-02
   1   15   25     3     4    1.7747E+05 -2.4581E+02   1.7771E+05  0.000E+00  0.000E+00  0.000E+00  3.50583E+01  1.694E-01  2.000E+01  2.000E+04 -1.229E-02
   1   15   26     3     5    1.7771E+05 -2.9909E+02   1.7801E+05  0.000E+00  0.000E+00  0.000E+00  3.41696E+01  1.696E-01  2.000E+01  2.000E+04 -1.495E-02
   1   16   27     3     6    1.7801E+05 -3.2940E+02   1.7834E+05  0.000E+00  0.000E+00  0.000E+00  3.32809E+01  1.698E-01  2.000E+01  2.000E+04 -1.647E-02
   1   17   28     3     7    1.7834E+05 -1.4534E+03   1.7980E+05  0.000E+00  0.000E+00  0.000E+00  3.23925E+01  1.703E-01  2.000E+01  2.000E+04 -7.267E-02
   1   18   29     3     8    1.7980E+05 -2.8007E+03   1.8260E+05  0.000E+00  0.000E+00  0.000E+00  3.15048E+01  1.715E-01  2.000E+01  2.000E+04 -1.400E-01
   1   18   30     3     9    1.8260E+05 -3.0973E+03   1.8569E+05  0.000E+00  0.000E+00  0.000E+00  3.06176E+01  1.731E-01  2.000E+01  2.000E+04 -1.549E-01



1
              HEAD IN LAYER   1 AT END OF TIME STEP   1 IN STRESS PERIOD    5
  ---------------------------------------------------------------------------

          1      2      3      4      5      6      7      8      9     10
         11     12     13     14     15     16     17     18     19     20
         21     22     23     24     25     26     27     28     29     30
 .........................................................................
   1  ****** ****** ****** ****** ****** ****** ****** ****** ****** ******
      ****** ****** ****** ****** ****** ****** ****** ****** ****** ******
      ****** ****** ****** ****** ****** ****** ****** ****** ****** ******
   2  ****** ****** ****** ****** ****** ****** ****** ****** ****** ******
      ****** ****** ****** ****** ****** ****** ****** ****** ****** ******
      ****** ****** ****** ****** ****** ****** ****** ****** ****** ******
   3  ****** ****** ****** ****** ****** ****** ****** ****** ****** ******
      ****** ****** ****** ****** ****** ****** ****** ****** ****** ******
      ****** ****** ****** ****** ****** ****** ****** ****** ****** ******
   4  ****** ****** ****** ****** ****** ****** ****** ****** ****** ******
      ****** ****** ****** ****** ****** ****** ****** ****** ****** ******
      ****** ****** ****** ****** ****** ****** ****** ****** ****** ******
   5  ****** ****** ****** ****** ****** ****** ****** ****** ****** ******
      ****** ****** ****** ****** ****** ****** ****** ****** ****** ******
      ****** ****** ****** ****** ****** ****** ****** ****** ****** ******
   6  ****** ****** ****** ****** ****** ****** ****** ****** ****** ******
      ****** ****** ****** ****** ****** ****** ****** ****** ****** ******
      ****** ****** ****** ****** ****** ****** ****** ****** ****** ******
   7  ****** ****** ****** ****** ****** ****** ****** ****** ****** ******
      ****** ****** ****** ****** ****** ****** ****** ****** ****** ******
      ****** ****** ****** ****** ****** ****** ****** ****** ****** ******
   8  ****** ****** ****** ****** ****** ****** ****** ****** ****** ******
      ****** ****** ****** ****** ****** ****** ****** ****** ****** ******
      ****** ****** ****** ****** ****** ****** ****** ****** ****** ******
   9  ****** ****** ****** ****** ****** ****** ****** ****** ****** ******
      ****** ****** ****** ****** ****** ****** ****** ****** ****** ******
      ****** ****** ****** ****** ****** ****** ****** ****** ****** ******
  10  ****** ****** ****** ****** ****** ****** ****** ****** ****** ******
      ****** ****** ****** ****** ****** ****** ****** ****** ****** ******
      ****** ****** ****** ****** ****** ****** ****** ****** ****** ******
  11  ****** ****** ****** ****** ****** ****** ****** ****** ****** ******
      ****** ****** ****** ****** ****** ****** ****** ****** ****** ******
      ****** ****** ****** ****** ****** ****** ****** ****** ****** ******
  12  ****** ****** ****** ****** ****** ****** ****** ****** ****** ******
      ****** ****** ****** ****** ****** ****** ****** ****** ****** ******
      ****** ****** ****** ****** ****** ****** ****** ****** ****** ******
  13  ****** ****** ****** ****** ****** ****** ****** ****** ****** ******
      ****** ****** ****** ****** ****** ****** ****** ****** ****** ******
      ****** ****** ****** ****** ****** ****** ****** ****** ****** ******
  14  ****** ****** ****** ****** ****** ****** ****** ****** ****** ******
      ****** ****** ****** ****** ****** ****** ****** ****** ****** ******
      ****** ****** ****** ****** ****** ****** ****** ****** ****** ******
  15  ****** ****** ****** ****** ****** ****** ****** ****** ****** ******
      ****** ****** ****** ****** ****** ****** ****** ****** ****** ******
      ****** ****** ****** ****** ****** ****** ****** ****** ****** ******
  16  ****** ****** ****** ****** ****** ****** ****** ****** ****** ******
      ****** ****** ****** ****** ****** ****** ****** ****** ****** ******
      ****** ****** ****** ****** ****** ****** ****** ****** ****** ******
  17  ****** ****** ****** ****** ****** ****** ****** ****** ****** ******
      ****** ****** ****** ****** ****** ****** ****** ****** ****** ******
      ****** ****** ****** ****** ****** ****** ****** ****** ****** ******
  18  ****** ****** ****** ****** ****** ****** ****** ****** ****** ******
      ****** ****** ****** ****** ****** ****** ****** ****** ****** ******
      ****** ****** ****** ****** ****** ****** ****** ****** ****** ******
  19  ****** ****** ****** ****** ****** ****** ****** ****** ****** ******
      ****** ****** ****** ****** ****** ****** ****** ****** ****** ******
      ****** ****** ****** ****** ****** ****** ****** ****** ****** ******
  20  ****** ****** ****** ****** ****** ****** ****** ****** ****** ******
      ****** ****** ****** ****** ****** ****** ****** ****** ****** ******
      ****** ****** ****** ****** ****** ****** ****** ****** ****** ******
  21  ****** ****** ****** ****** ****** ****** ****** ****** ****** ******
      ****** ****** ****** ****** ****** ****** ****** ****** ****** ******
      ****** ****** ****** ****** ****** ****** ****** ****** ****** ******
  22  ****** ****** ****** ****** ****** ****** ****** ****** ****** ******
      ****** ****** ****** ****** ****** ****** ****** ****** ****** ******
      ****** ****** ****** ****** ****** ****** ****** ****** ****** ******
  23  ****** ****** ****** ****** ****** ****** ****** ****** ****** ******
      ****** ****** ****** ****** ****** ****** ****** ****** ****** ******
      ****** ****** ****** ****** ****** ****** ****** ****** ****** ******
  24  ****** ****** ****** ****** ****** ****** ****** ****** ****** ******
      ****** ****** ****** ****** ****** ****** ****** ****** ****** ******
      ****** ****** ****** ****** ****** ****** ****** ****** ****** ******
  25  ****** ****** ****** ****** ****** ****** ****** ****** ****** ******
      ****** ****** ****** ****** ****** ****** ****** ****** ****** ******
      ****** ****** ****** ****** ****** ****** ****** ****** ****** ******

 HEAD WILL BE SAVED ON UNIT   51 AT END OF TIME STEP    1, STRESS PERIOD    5
1
  VOLUMETRIC BUDGET FOR ENTIRE MODEL AT END OF TIME STEP    1, STRESS PERIOD   5
  ------------------------------------------------------------------------------

     CUMULATIVE VOLUMES      L**3       RATES FOR THIS TIME STEP      L**3/T
     ------------------                 ------------------------

           IN:                                      IN:
           ---                                      ---
             STORAGE =    32220224.0250               STORAGE =       19581.1526
       CONSTANT HEAD =    10962966.7153         CONSTANT HEAD =       32729.0994
               WELLS =           0.0000                 WELLS =           0.0000
            RECHARGE =    10074000.0000              RECHARGE =       13800.0000
      STREAM LEAKAGE =     2834057.1289        STREAM LEAKAGE =        7756.9861

            TOTAL IN =    56091247.8692              TOTAL IN =       73867.2381

          OUT:                                     OUT:
          ----                                     ----
             STORAGE =        1181.7108               STORAGE =           0.0000
       CONSTANT HEAD =           0.0000         CONSTANT HEAD =           0.0000
               WELLS =    13899905.8627                 WELLS =       30415.5489
            RECHARGE =           0.0000              RECHARGE =           0.0000
      STREAM LEAKAGE =    42190162.6488        STREAM LEAKAGE =       43451.6925

           TOTAL OUT =    56091250.2223             TOTAL OUT =       73867.2415

            IN - OUT =          -2.3530              IN - OUT =      -3.3396E-03

 PERCENT DISCREPANCY =          -0.00     PERCENT DISCREPANCY =          -0.00






         TIME SUMMARY AT END OF TIME STEP    1 IN STRESS PERIOD    5
                    SECONDS     MINUTES      HOURS       DAYS        YEARS
                    -----------------------------------------------------------
   TIME STEP LENGTH 7.94880E+06 1.32480E+05  2208.0      92.000     0.25188    
 STRESS PERIOD TIME 7.94880E+06 1.32480E+05  2208.0      92.000     0.25188    
         TOTAL TIME 3.94848E+07 6.58080E+05  10968.      457.00      1.2512    
1
1
                            STRESS PERIOD NO.    6, LENGTH =   91.00000    
                            -----------------------------------------------

                              NUMBER OF TIME STEPS =     1

                               MULTIPLIER FOR DELT =     1.500

                            INITIAL TIME STEP SIZE =   91.00000    

 WELL NO.  LAYER   ROW   COL   STRESS RATE         
 --------------------------------------------------
      1      1     10     17     -0.1009E+05
      2      1     11     19      -420.2    
      3      1     19     16      -9508.    
      4      1      6     15     -0.1040E+05

      4 WELLS

                 RECHARGE =  2.000000E-03

 REUSING STREAM SEGMENT DATA FROM LAST STRESS PERIOD
 
 SOLVING FOR HEAD 


     7 CALLS TO PCG ROUTINE FOR TIME STEP   1 IN STRESS PERIOD    6
    26 TOTAL ITERATIONS

 OUTPUT CONTROL FOR STRESS PERIOD    6   TIME STEP    1
    SAVE BUDGET
    SAVE HEAD FOR ALL LAYERS
    PRINT HEAD FOR ALL LAYERS
 UBDSV2 SAVING "STREAMFLOW OUT  " ON UNIT  50 AT TIME STEP  1, STRESS PERIOD   6



 STREAM LISTING     PERIOD      6   STEP        1

 LAYER ROW COL. STREAM  RCH.  FLOW INTO     FLOW TO   FLOW OUT OF   OVRLND.     DIRECT     STREAM       STREAM     STREAM     STREAM   STREAMBED  STREAMBED
                SEG.NO.  NO.  STRM. RCH.    AQUIFER    STRM. RCH.    RUNOFF     PRECIP       ET          HEAD       DEPTH      WIDTH   CONDCTNC.   GRADIENT

   1   13    1     1     1    1.0000E+05 -2.2127E+03   1.0221E+05  0.000E+00  0.000E+00  0.000E+00  4.84070E+01  1.456E-01  2.000E+01  2.000E+04 -1.106E-01
   1   13    2     1     2    1.0221E+05 -3.2419E+03   1.0545E+05  0.000E+00  0.000E+00  0.000E+00  4.79320E+01  1.480E-01  2.000E+01  2.000E+04 -1.621E-01
   1   14    3     1     3    1.0545E+05 -6.3416E+02   1.0609E+05  0.000E+00  0.000E+00  0.000E+00  4.74564E+01  1.496E-01  2.000E+01  2.000E+04 -3.171E-02
   1   15    4     1     4    1.0609E+05 -6.1283E+02   1.0670E+05  0.000E+00  0.000E+00  0.000E+00  4.69797E+01  1.501E-01  2.000E+01  2.000E+04 -3.064E-02
   1   16    5     1     5    1.0670E+05 -2.0881E+03   1.0879E+05  0.000E+00  0.000E+00  0.000E+00  4.65035E+01  1.513E-01  2.000E+01  2.000E+04 -1.044E-01
   1   16    6     1     6    1.0879E+05 -1.2902E+03   1.1008E+05  0.000E+00  0.000E+00  0.000E+00  4.60277E+01  1.527E-01  2.000E+01  2.000E+04 -6.451E-02
   1   16    7     1     7    1.1008E+05 -1.2361E+03   1.1132E+05  0.000E+00  0.000E+00  0.000E+00  4.55515E+01  1.537E-01  2.000E+01  2.000E+04 -6.180E-02
   1   16    8     1     8    1.1132E+05 -1.1911E+03   1.1251E+05  0.000E+00  0.000E+00  0.000E+00  4.50752E+01  1.548E-01  2.000E+01  2.000E+04 -5.956E-02
   1   16    9     1     9    1.1251E+05 -1.1273E+03   1.1363E+05  0.000E+00  0.000E+00  0.000E+00  4.45989E+01  1.557E-01  2.000E+01  2.000E+04 -5.637E-02
   1   16   10     1    10    1.1363E+05 -1.0350E+03   1.1467E+05  0.000E+00  0.000E+00  0.000E+00  4.41225E+01  1.566E-01  2.000E+01  2.000E+04 -5.175E-02
   1   16   11     1    11    1.1467E+05 -9.0933E+02   1.1558E+05  0.000E+00  0.000E+00  0.000E+00  4.36460E+01  1.574E-01  2.000E+01  2.000E+04 -4.547E-02
   1   16   12     1    12    1.1558E+05 -1.1510E+03   1.1673E+05  0.000E+00  0.000E+00  0.000E+00  4.31696E+01  1.583E-01  2.000E+01  2.000E+04 -5.755E-02
   1   15   13     1    13    1.1673E+05 -1.0127E+03   1.1774E+05  0.000E+00  0.000E+00  0.000E+00  4.26932E+01  1.591E-01  2.000E+01  2.000E+04 -5.064E-02
   1   14   14     1    14    1.1774E+05 -1.1638E+03   1.1891E+05  0.000E+00  0.000E+00  0.000E+00  4.22168E+01  1.600E-01  2.000E+01  2.000E+04 -5.819E-02
   1   13   15     1    15    1.1891E+05 -1.1761E+03   1.2008E+05  0.000E+00  0.000E+00  0.000E+00  4.17405E+01  1.610E-01  2.000E+01  2.000E+04 -5.880E-02
   1   12   16     1    16    1.2008E+05 -5.2616E+02   1.2061E+05  0.000E+00  0.000E+00  0.000E+00  4.12639E+01  1.617E-01  2.000E+01  2.000E+04 -2.631E-02
   1   12   17     1    17    1.2061E+05  3.7809E+02   1.2023E+05  0.000E+00  0.000E+00  0.000E+00  4.07867E+01  1.617E-01  2.000E+01  2.000E+04  1.890E-02
   1   12   18     1    18    1.2023E+05 -1.6167E+02   1.2039E+05  0.000E+00  0.000E+00  0.000E+00  4.03094E+01  1.616E-01  2.000E+01  2.000E+04 -8.083E-03
   1   12   19     1    19    1.2039E+05 -9.4176E+02   1.2133E+05  0.000E+00  0.000E+00  0.000E+00  3.98325E+01  1.621E-01  2.000E+01  2.000E+04 -4.709E-02
   1   13   20     1    20    1.2133E+05 -1.3290E+03   1.2266E+05  0.000E+00  0.000E+00  0.000E+00  3.93562E+01  1.630E-01  2.000E+01  2.000E+04 -6.645E-02
   1   14   21     1    21    1.2266E+05 -1.3253E+03   1.2399E+05  0.000E+00  0.000E+00  0.000E+00  3.88800E+01  1.640E-01  2.000E+01  2.000E+04 -6.627E-02
   1   14   22     1    22    1.2399E+05  4.8194E+03   1.1917E+05  0.000E+00  0.000E+00  0.000E+00  3.84013E+01  1.626E-01  2.000E+01  2.000E+04  2.410E-01
   1    9   30     2     1    5.0000E+04 -9.0154E+02   5.0902E+04  0.000E+00  0.000E+00  0.000E+00  4.02415E+01  1.165E-01  2.000E+01  2.000E+04 -4.508E-02
   1    9   29     2     2    5.0902E+04 -1.1845E+03   5.2086E+04  0.000E+00  0.000E+00  0.000E+00  3.99929E+01  1.179E-01  2.000E+01  2.000E+04 -5.923E-02
   1    9   28     2     3    5.2086E+04 -1.4012E+03   5.3487E+04  0.000E+00  0.000E+00  0.000E+00  3.97447E+01  1.197E-01  2.000E+01  2.000E+04 -7.006E-02
   1    9   27     2     4    5.3487E+04 -2.5463E+03   5.6034E+04  0.000E+00  0.000E+00  0.000E+00  3.94974E+01  1.224E-01  2.000E+01  2.000E+04 -1.273E-01
   1   10   26     2     5    5.6034E+04 -1.7466E+03   5.7780E+04  0.000E+00  0.000E+00  0.000E+00  3.92502E+01  1.252E-01  2.000E+01  2.000E+04 -8.733E-02
   1   11   25     2     6    5.7780E+04 -1.4896E+03   5.9270E+04  0.000E+00  0.000E+00  0.000E+00  3.90023E+01  1.273E-01  2.000E+01  2.000E+04 -7.448E-02
   1   12   24     2     7    5.9270E+04 -1.4623E+03   6.0732E+04  0.000E+00  0.000E+00  0.000E+00  3.87543E+01  1.293E-01  2.000E+01  2.000E+04 -7.311E-02
   1   13   23     2     8    6.0732E+04 -2.9640E+02   6.1028E+04  0.000E+00  0.000E+00  0.000E+00  3.85054E+01  1.304E-01  2.000E+01  2.000E+04 -1.482E-02
   1   14   22     2     9    6.1028E+04  1.8812E+03   5.9147E+04  0.000E+00  0.000E+00  0.000E+00  3.82544E+01  1.294E-01  2.000E+01  2.000E+04  9.406E-02
   1   14   22     3     1    1.7832E+05 -8.6493E+03   1.8697E+05  0.000E+00  0.000E+00  0.000E+00  3.77278E+01  1.723E-01  2.000E+01  2.000E+04 -4.325E-01
   1   15   23     3     2    1.8697E+05 -5.7185E+02   1.8754E+05  0.000E+00  0.000E+00  0.000E+00  3.68416E+01  1.749E-01  2.000E+01  2.000E+04 -2.859E-02
   1   15   24     3     3    1.8754E+05 -3.6647E+02   1.8790E+05  0.000E+00  0.000E+00  0.000E+00  3.59529E+01  1.751E-01  2.000E+01  2.000E+04 -1.832E-02
   1   15   25     3     4    1.8790E+05 -3.7175E+02   1.8828E+05  0.000E+00  0.000E+00  0.000E+00  3.50642E+01  1.754E-01  2.000E+01  2.000E+04 -1.859E-02
   1   15   26     3     5    1.8828E+05 -4.5020E+02   1.8873E+05  0.000E+00  0.000E+00  0.000E+00  3.41756E+01  1.756E-01  2.000E+01  2.000E+04 -2.251E-02
   1   16   27     3     6    1.8873E+05 -4.9761E+02   1.8922E+05  0.000E+00  0.000E+00  0.000E+00  3.32870E+01  1.758E-01  2.000E+01  2.000E+04 -2.488E-02
   1   17   28     3     7    1.8922E+05 -1.9144E+03   1.9114E+05  0.000E+00  0.000E+00  0.000E+00  3.23987E+01  1.765E-01  2.000E+01  2.000E+04 -9.572E-02
   1   18   29     3     8    1.9114E+05 -3.2365E+03   1.9437E+05  0.000E+00  0.000E+00  0.000E+00  3.15113E+01  1.780E-01  2.000E+01  2.000E+04 -1.618E-01
   1   18   30     3     9    1.9437E+05 -3.4513E+03   1.9783E+05  0.000E+00  0.000E+00  0.000E+00  3.06242E+01  1.798E-01  2.000E+01  2.000E+04 -1.726E-01



1
              HEAD IN LAYER   1 AT END OF TIME STEP   1 IN STRESS PERIOD    6
  ---------------------------------------------------------------------------

          1      2      3      4      5      6      7      8      9     10
         11     12     13     14     15     16     17     18     19     20
         21     22     23     24     25     26     27     28     29     30
 .........................................................................
   1  ****** ****** ****** ****** ****** ****** ****** ****** ****** ******
      ****** ****** ****** ****** ****** ****** ****** ****** ****** ******
      ****** ****** ****** ****** ****** ****** ****** ****** ****** ******
   2  ****** ****** ****** ****** ****** ****** ****** ****** ****** ******
      ****** ****** ****** ****** ****** ****** ****** ****** ****** ******
      ****** ****** ****** ****** ****** ****** ****** ****** ****** ******
   3  ****** ****** ****** ****** ****** ****** ****** ****** ****** ******
      ****** ****** ****** ****** ****** ****** ****** ****** ****** ******
      ****** ****** ****** ****** ****** ****** ****** ****** ****** ******
   4  ****** ****** ****** ****** ****** ****** ****** ****** ****** ******
      ****** ****** ****** ****** ****** ****** ****** ****** ****** ******
      ****** ****** ****** ****** ****** ****** ****** ****** ****** ******
   5  ****** ****** ****** ****** ****** ****** ****** ****** ****** ******
      ****** ****** ****** ****** ****** ****** ****** ****** ****** ******
      ****** ****** ****** ****** ****** ****** ****** ****** ****** ******
   6  ****** ****** ****** ****** ****** ****** ****** ****** ****** ******
      ****** ****** ****** ****** ****** ****** ****** ****** ****** ******
      ****** ****** ****** ****** ****** ****** ****** ****** ****** ******
   7  ****** ****** ****** ****** ****** ****** ****** ****** ****** ******
      ****** ****** ****** ****** ****** ****** ****** ****** ****** ******
      ****** ****** ****** ****** ****** ****** ****** ****** ****** ******
   8  ****** ****** ****** ****** ****** ****** ****** ****** ****** ******
      ****** ****** ****** ****** ****** ****** ****** ****** ****** ******
      ****** ****** ****** ****** ****** ****** ****** ****** ****** ******
   9  ****** ****** ****** ****** ****** ****** ****** ****** ****** ******
      ****** ****** ****** ****** ****** ****** ****** ****** ****** ******
      ****** ****** ****** ****** ****** ****** ****** ****** ****** ******
  10  ****** ****** ****** ****** ****** ****** ****** ****** ****** ******
      ****** ****** ****** ****** ****** ****** ****** ****** ****** ******
      ****** ****** ****** ****** ****** ****** ****** ****** ****** ******
  11  ****** ****** ****** ****** ****** ****** ****** ****** ****** ******
      ****** ****** ****** ****** ****** ****** ****** ****** ****** ******
      ****** ****** ****** ****** ****** ****** ****** ****** ****** ******
  12  ****** ****** ****** ****** ****** ****** ****** ****** ****** ******
      ****** ****** ****** ****** ****** ****** ****** ****** ****** ******
      ****** ****** ****** ****** ****** ****** ****** ****** ****** ******
  13  ****** ****** ****** ****** ****** ****** ****** ****** ****** ******
      ****** ****** ****** ****** ****** ****** ****** ****** ****** ******
      ****** ****** ****** ****** ****** ****** ****** ****** ****** ******
  14  ****** ****** ****** ****** ****** ****** ****** ****** ****** ******
      ****** ****** ****** ****** ****** ****** ****** ****** ****** ******
      ****** ****** ****** ****** ****** ****** ****** ****** ****** ******
  15  ****** ****** ****** ****** ****** ****** ****** ****** ****** ******
      ****** ****** ****** ****** ****** ****** ****** ****** ****** ******
      ****** ****** ****** ****** ****** ****** ****** ****** ****** ******
  16  ****** ****** ****** ****** ****** ****** ****** ****** ****** ******
      ****** ****** ****** ****** ****** ****** ****** ****** ****** ******
      ****** ****** ****** ****** ****** ****** ****** ****** ****** ******
  17  ****** ****** ****** ****** ****** ****** ****** ****** ****** ******
      ****** ****** ****** ****** ****** ****** ****** ****** ****** ******
      ****** ****** ****** ****** ****** ****** ****** ****** ****** ******
  18  ****** ****** ****** ****** ****** ****** ****** ****** ****** ******
      ****** ****** ****** ****** ****** ****** ****** ****** ****** ******
      ****** ****** ****** ****** ****** ****** ****** ****** ****** ******
  19  ****** ****** ****** ****** ****** ****** ****** ****** ****** ******
      ****** ****** ****** ****** ****** ****** ****** ****** ****** ******
      ****** ****** ****** ****** ****** ****** ****** ****** ****** ******
  20  ****** ****** ****** ****** ****** ****** ****** ****** ****** ******
      ****** ****** ****** ****** ****** ****** ****** ****** ****** ******
      ****** ****** ****** ****** ****** ****** ****** ****** ****** ******
  21  ****** ****** ****** ****** ****** ****** ****** ****** ****** ******
      ****** ****** ****** ****** ****** ****** ****** ****** ****** ******
      ****** ****** ****** ****** ****** ****** ****** ****** ****** ******
  22  ****** ****** ****** ****** ****** ****** ****** ****** ****** ******
      ****** ****** ****** ****** ****** ****** ****** ****** ****** ******
      ****** ****** ****** ****** ****** ****** ****** ****** ****** ******
  23  ****** ****** ****** ****** ****** ****** ****** ****** ****** ******
      ****** ****** ****** ****** ****** ****** ****** ****** ****** ******
      ****** ****** ****** ****** ****** ****** ****** ****** ****** ******
  24  ****** ****** ****** ****** ****** ****** ****** ****** ****** ******
      ****** ****** ****** ****** ****** ****** ****** ****** ****** ******
      ****** ****** ****** ****** ****** ****** ****** ****** ****** ******
  25  ****** ****** ****** ****** ****** ****** ****** ****** ****** ******
      ****** ****** ****** ****** ****** ****** ****** ****** ****** ******
      ****** ****** ****** ****** ****** ****** ****** ****** ****** ******

 HEAD WILL BE SAVED ON UNIT   51 AT END OF TIME STEP    1, STRESS PERIOD    6
1
  VOLUMETRIC BUDGET FOR ENTIRE MODEL AT END OF TIME STEP    1, STRESS PERIOD   6
  ------------------------------------------------------------------------------

     CUMULATIVE VOLUMES      L**3       RATES FOR THIS TIME STEP      L**3/T
     ------------------                 ------------------------

           IN:                                      IN:
           ---                                      ---
             STORAGE =    32222192.9491               STORAGE =          21.6365
       CONSTANT HEAD =    13778289.5209         CONSTANT HEAD =       30937.6132
               WELLS =           0.0000                 WELLS =           0.0000
            RECHARGE =    15097200.0000              RECHARGE =       55200.0000
      STREAM LEAKAGE =     3478217.2573        STREAM LEAKAGE =        7078.6827

            TOTAL IN =    64575899.7273              TOTAL IN =       93237.9325

          OUT:                                     OUT:
          ----                                     ----
             STORAGE =      721751.3126               STORAGE =        7918.3473
       CONSTANT HEAD =           0.0000         CONSTANT HEAD =           0.0000
               WELLS =    16667720.8157                 WELLS =       30415.5489
            RECHARGE =           0.0000              RECHARGE =           0.0000
      STREAM LEAKAGE =    47186429.6946        STREAM LEAKAGE =       54904.0335

           TOTAL OUT =    64575901.8228             TOTAL OUT =       93237.9297

            IN - OUT =          -2.0955              IN - OUT =       2.8294E-03

 PERCENT DISCREPANCY =          -0.00     PERCENT DISCREPANCY =           0.00






         TIME SUMMARY AT END OF TIME STEP    1 IN STRESS PERIOD    6
                    SECONDS     MINUTES      HOURS       DAYS        YEARS
                    -----------------------------------------------------------
   TIME STEP LENGTH 7.86240E+06 1.31040E+05  2184.0      91.000     0.24914    
 STRESS PERIOD TIME 7.86240E+06 1.31040E+05  2184.0      91.000     0.24914    
         TOTAL TIME 4.73472E+07 7.89120E+05  13152.      548.00      1.5003    
1
1
                            STRESS PERIOD NO.    7, LENGTH =   91.00000    
                            -----------------------------------------------

                              NUMBER OF TIME STEPS =     1

                               MULTIPLIER FOR DELT =     1.500

                            INITIAL TIME STEP SIZE =   91.00000    

 WELL NO.  LAYER   ROW   COL   STRESS RATE         
 --------------------------------------------------
      1      1     10     17     -0.1009E+05
      2      1     11     19      -420.2    
      3      1     19     16      -9508.    
      4      1      6     15     -0.1040E+05

      4 WELLS

                 RECHARGE =   0.00000    

 REUSING STREAM SEGMENT DATA FROM LAST STRESS PERIOD
 
 SOLVING FOR HEAD 


     7 CALLS TO PCG ROUTINE FOR TIME STEP   1 IN STRESS PERIOD    7
    26 TOTAL ITERATIONS

 OUTPUT CONTROL FOR STRESS PERIOD    7   TIME STEP    1
    SAVE BUDGET
    SAVE HEAD FOR ALL LAYERS
    PRINT HEAD FOR ALL LAYERS
 UBDSV2 SAVING "STREAMFLOW OUT  " ON UNIT  50 AT TIME STEP  1, STRESS PERIOD   7



 STREAM LISTING     PERIOD      7   STEP        1

 LAYER ROW COL. STREAM  RCH.  FLOW INTO     FLOW TO   FLOW OUT OF   OVRLND.     DIRECT     STREAM       STREAM     STREAM     STREAM   STREAMBED  STREAMBED
                SEG.NO.  NO.  STRM. RCH.    AQUIFER    STRM. RCH.    RUNOFF     PRECIP       ET          HEAD       DEPTH      WIDTH   CONDCTNC.   GRADIENT

   1   13    1     1     1    1.0000E+05 -1.5291E+03   1.0153E+05  0.000E+00  0.000E+00  0.000E+00  4.84067E+01  1.453E-01  2.000E+01  2.000E+04 -7.646E-02
   1   13    2     1     2    1.0153E+05 -2.4766E+03   1.0401E+05  0.000E+00  0.000E+00  0.000E+00  4.79311E+01  1.470E-01  2.000E+01  2.000E+04 -1.238E-01
   1   14    3     1     3    1.0401E+05 -3.7948E+02   1.0439E+05  0.000E+00  0.000E+00  0.000E+00  4.74551E+01  1.483E-01  2.000E+01  2.000E+04 -1.897E-02
   1   15    4     1     4    1.0439E+05 -3.4788E+02   1.0473E+05  0.000E+00  0.000E+00  0.000E+00  4.69781E+01  1.486E-01  2.000E+01  2.000E+04 -1.739E-02
   1   16    5     1     5    1.0473E+05 -1.3313E+03   1.0606E+05  0.000E+00  0.000E+00  0.000E+00  4.65016E+01  1.493E-01  2.000E+01  2.000E+04 -6.657E-02
   1   16    6     1     6    1.0606E+05 -8.3284E+02   1.0690E+05  0.000E+00  0.000E+00  0.000E+00  4.60252E+01  1.502E-01  2.000E+01  2.000E+04 -4.164E-02
   1   16    7     1     7    1.0690E+05 -7.9686E+02   1.0769E+05  0.000E+00  0.000E+00  0.000E+00  4.55486E+01  1.509E-01  2.000E+01  2.000E+04 -3.984E-02
   1   16    8     1     8    1.0769E+05 -7.5774E+02   1.0845E+05  0.000E+00  0.000E+00  0.000E+00  4.50720E+01  1.515E-01  2.000E+01  2.000E+04 -3.789E-02
   1   16    9     1     9    1.0845E+05 -6.9715E+02   1.0915E+05  0.000E+00  0.000E+00  0.000E+00  4.45953E+01  1.522E-01  2.000E+01  2.000E+04 -3.486E-02
   1   16   10     1    10    1.0915E+05 -6.0750E+02   1.0976E+05  0.000E+00  0.000E+00  0.000E+00  4.41186E+01  1.527E-01  2.000E+01  2.000E+04 -3.037E-02
   1   16   11     1    11    1.0976E+05 -4.8084E+02   1.1024E+05  0.000E+00  0.000E+00  0.000E+00  4.36418E+01  1.532E-01  2.000E+01  2.000E+04 -2.404E-02
   1   16   12     1    12    1.1024E+05 -4.2933E+02   1.1067E+05  0.000E+00  0.000E+00  0.000E+00  4.31649E+01  1.535E-01  2.000E+01  2.000E+04 -2.147E-02
   1   15   13     1    13    1.1067E+05 -2.3535E+02   1.1090E+05  0.000E+00  0.000E+00  0.000E+00  4.26879E+01  1.538E-01  2.000E+01  2.000E+04 -1.177E-02
   1   14   14     1    14    1.1090E+05 -3.5563E+02   1.1126E+05  0.000E+00  0.000E+00  0.000E+00  4.22109E+01  1.541E-01  2.000E+01  2.000E+04 -1.778E-02
   1   13   15     1    15    1.1126E+05 -3.6332E+02   1.1162E+05  0.000E+00  0.000E+00  0.000E+00  4.17339E+01  1.544E-01  2.000E+01  2.000E+04 -1.817E-02
   1   12   16     1    16    1.1162E+05  2.8512E+02   1.1134E+05  0.000E+00  0.000E+00  0.000E+00  4.12567E+01  1.544E-01  2.000E+01  2.000E+04  1.426E-02
   1   12   17     1    17    1.1134E+05  9.6445E+02   1.1037E+05  0.000E+00  0.000E+00  0.000E+00  4.07789E+01  1.539E-01  2.000E+01  2.000E+04  4.822E-02
   1   12   18     1    18    1.1037E+05  4.0921E+02   1.0996E+05  0.000E+00  0.000E+00  0.000E+00  4.03010E+01  1.533E-01  2.000E+01  2.000E+04  2.046E-02
   1   12   19     1    19    1.0996E+05 -2.4467E+02   1.1021E+05  0.000E+00  0.000E+00  0.000E+00  3.98237E+01  1.532E-01  2.000E+01  2.000E+04 -1.223E-02
   1   13   20     1    20    1.1021E+05 -6.5436E+02   1.1086E+05  0.000E+00  0.000E+00  0.000E+00  3.93468E+01  1.536E-01  2.000E+01  2.000E+04 -3.272E-02
   1   14   21     1    21    1.1086E+05 -6.6102E+02   1.1152E+05  0.000E+00  0.000E+00  0.000E+00  3.88701E+01  1.542E-01  2.000E+01  2.000E+04 -3.305E-02
   1   14   22     1    22    1.1152E+05  4.9740E+03   1.0655E+05  0.000E+00  0.000E+00  0.000E+00  3.83910E+01  1.524E-01  2.000E+01  2.000E+04  2.487E-01
   1    9   30     2     1    5.0000E+04 -3.8557E+02   5.0386E+04  0.000E+00  0.000E+00  0.000E+00  4.02411E+01  1.161E-01  2.000E+01  2.000E+04 -1.928E-02
   1    9   29     2     2    5.0386E+04 -6.7013E+02   5.1056E+04  0.000E+00  0.000E+00  0.000E+00  3.99919E+01  1.169E-01  2.000E+01  2.000E+04 -3.351E-02
   1    9   28     2     3    5.1056E+04 -8.8486E+02   5.1941E+04  0.000E+00  0.000E+00  0.000E+00  3.97429E+01  1.179E-01  2.000E+01  2.000E+04 -4.424E-02
   1    9   27     2     4    5.1941E+04 -1.8423E+03   5.3783E+04  0.000E+00  0.000E+00  0.000E+00  3.94948E+01  1.198E-01  2.000E+01  2.000E+04 -9.212E-02
   1   10   26     2     5    5.3783E+04 -1.0418E+03   5.4825E+04  0.000E+00  0.000E+00  0.000E+00  3.92468E+01  1.218E-01  2.000E+01  2.000E+04 -5.209E-02
   1   11   25     2     6    5.4825E+04 -8.1379E+02   5.5638E+04  0.000E+00  0.000E+00  0.000E+00  3.89980E+01  1.230E-01  2.000E+01  2.000E+04 -4.069E-02
   1   12   24     2     7    5.5638E+04 -8.4564E+02   5.6484E+04  0.000E+00  0.000E+00  0.000E+00  3.87491E+01  1.241E-01  2.000E+01  2.000E+04 -4.228E-02
   1   13   23     2     8    5.6484E+04 -1.0370E+02   5.6588E+04  0.000E+00  0.000E+00  0.000E+00  3.84997E+01  1.247E-01  2.000E+01  2.000E+04 -5.185E-03
   1   14   22     2     9    5.6588E+04  2.1218E+03   5.4466E+04  0.000E+00  0.000E+00  0.000E+00  3.82484E+01  1.234E-01  2.000E+01  2.000E+04  1.061E-01
   1   14   22     3     1    1.6101E+05 -8.4897E+03   1.6950E+05  0.000E+00  0.000E+00  0.000E+00  3.77178E+01  1.623E-01  2.000E+01  2.000E+04 -4.245E-01
   1   15   23     3     2    1.6950E+05 -3.6511E+02   1.6987E+05  0.000E+00  0.000E+00  0.000E+00  3.68315E+01  1.648E-01  2.000E+01  2.000E+04 -1.826E-02
   1   15   24     3     3    1.6987E+05 -1.9275E+02   1.7006E+05  0.000E+00  0.000E+00  0.000E+00  3.59428E+01  1.650E-01  2.000E+01  2.000E+04 -9.638E-03
   1   15   25     3     4    1.7006E+05 -1.9501E+02   1.7026E+05  0.000E+00  0.000E+00  0.000E+00  3.50540E+01  1.651E-01  2.000E+01  2.000E+04 -9.750E-03
   1   15   26     3     5    1.7026E+05 -2.4900E+02   1.7051E+05  0.000E+00  0.000E+00  0.000E+00  3.41653E+01  1.653E-01  2.000E+01  2.000E+04 -1.245E-02
   1   16   27     3     6    1.7051E+05 -2.6526E+02   1.7077E+05  0.000E+00  0.000E+00  0.000E+00  3.32765E+01  1.654E-01  2.000E+01  2.000E+04 -1.326E-02
   1   17   28     3     7    1.7077E+05 -1.2728E+03   1.7204E+05  0.000E+00  0.000E+00  0.000E+00  3.23881E+01  1.659E-01  2.000E+01  2.000E+04 -6.364E-02
   1   18   29     3     8    1.7204E+05 -2.5499E+03   1.7459E+05  0.000E+00  0.000E+00  0.000E+00  3.15003E+01  1.670E-01  2.000E+01  2.000E+04 -1.275E-01
   1   18   30     3     9    1.7459E+05 -2.9226E+03   1.7752E+05  0.000E+00  0.000E+00  0.000E+00  3.06130E+01  1.685E-01  2.000E+01  2.000E+04 -1.461E-01



1
              HEAD IN LAYER   1 AT END OF TIME STEP   1 IN STRESS PERIOD    7
  ---------------------------------------------------------------------------

          1      2      3      4      5      6      7      8      9     10
         11     12     13     14     15     16     17     18     19     20
         21     22     23     24     25     26     27     28     29     30
 .........................................................................
   1  ****** ****** ****** ****** ****** ****** ****** ****** ****** ******
      ****** ****** ****** ****** ****** ****** ****** ****** ****** ******
      ****** ****** ****** ****** ****** ****** ****** ****** ****** ******
   2  ****** ****** ****** ****** ****** ****** ****** ****** ****** ******
      ****** ****** ****** ****** ****** ****** ****** ****** ****** ******
      ****** ****** ****** ****** ****** ****** ****** ****** ****** ******
   3  ****** ****** ****** ****** ****** ****** ****** ****** ****** ******
      ****** ****** ****** ****** ****** ****** ****** ****** ****** ******
      ****** ****** ****** ****** ****** ****** ****** ****** ****** ******
   4  ****** ****** ****** ****** ****** ****** ****** ****** ****** ******
      ****** ****** ****** ****** ****** ****** ****** ****** ****** ******
      ****** ****** ****** ****** ****** ****** ****** ****** ****** ******
   5  ****** ****** ****** ****** ****** ****** ****** ****** ****** ******
      ****** ****** ****** ****** ****** ****** ****** ****** ****** ******
      ****** ****** ****** ****** ****** ****** ****** ****** ****** ******
   6  ****** ****** ****** ****** ****** ****** ****** ****** ****** ******
      ****** ****** ****** ****** ****** ****** ****** ****** ****** ******
      ****** ****** ****** ****** ****** ****** ****** ****** ****** ******
   7  ****** ****** ****** ****** ****** ****** ****** ****** ****** ******
      ****** ****** ****** ****** ****** ****** ****** ****** ****** ******
      ****** ****** ****** ****** ****** ****** ****** ****** ****** ******
   8  ****** ****** ****** ****** ****** ****** ****** ****** ****** ******
      ****** ****** ****** ****** ****** ****** ****** ****** ****** ******
      ****** ****** ****** ****** ****** ****** ****** ****** ****** ******
   9  ****** ****** ****** ****** ****** ****** ****** ****** ****** ******
      ****** ****** ****** ****** ****** ****** ****** ****** ****** ******
      ****** ****** ****** ****** ****** ****** ****** ****** ****** ******
  10  ****** ****** ****** ****** ****** ****** ****** ****** ****** ******
      ****** ****** ****** ****** ****** ****** ****** ****** ****** ******
      ****** ****** ****** ****** ****** ****** ****** ****** ****** ******
  11  ****** ****** ****** ****** ****** ****** ****** ****** ****** ******
      ****** ****** ****** ****** ****** ****** ****** ****** ****** ******
      ****** ****** ****** ****** ****** ****** ****** ****** ****** ******
  12  ****** ****** ****** ****** ****** ****** ****** ****** ****** ******
      ****** ****** ****** ****** ****** ****** ****** ****** ****** ******
      ****** ****** ****** ****** ****** ****** ****** ****** ****** ******
  13  ****** ****** ****** ****** ****** ****** ****** ****** ****** ******
      ****** ****** ****** ****** ****** ****** ****** ****** ****** ******
      ****** ****** ****** ****** ****** ****** ****** ****** ****** ******
  14  ****** ****** ****** ****** ****** ****** ****** ****** ****** ******
      ****** ****** ****** ****** ****** ****** ****** ****** ****** ******
      ****** ****** ****** ****** ****** ****** ****** ****** ****** ******
  15  ****** ****** ****** ****** ****** ****** ****** ****** ****** ******
      ****** ****** ****** ****** ****** ****** ****** ****** ****** ******
      ****** ****** ****** ****** ****** ****** ****** ****** ****** ******
  16  ****** ****** ****** ****** ****** ****** ****** ****** ****** ******
      ****** ****** ****** ****** ****** ****** ****** ****** ****** ******
      ****** ****** ****** ****** ****** ****** ****** ****** ****** ******
  17  ****** ****** ****** ****** ****** ****** ****** ****** ****** ******
      ****** ****** ****** ****** ****** ****** ****** ****** ****** ******
      ****** ****** ****** ****** ****** ****** ****** ****** ****** ******
  18  ****** ****** ****** ****** ****** ****** ****** ****** ****** ******
      ****** ****** ****** ****** ****** ****** ****** ****** ****** ******
      ****** ****** ****** ****** ****** ****** ****** ****** ****** ******
  19  ****** ****** ****** ****** ****** ****** ****** ****** ****** ******
      ****** ****** ****** ****** ****** ****** ****** ****** ****** ******
      ****** ****** ****** ****** ****** ****** ****** ****** ****** ******
  20  ****** ****** ****** ****** ****** ****** ****** ****** ****** ******
      ****** ****** ****** ****** ****** ****** ****** ****** ****** ******
      ****** ****** ****** ****** ****** ****** ****** ****** ****** ******
  21  ****** ****** ****** ****** ****** ****** ****** ****** ****** ******
      ****** ****** ****** ****** ****** ****** ****** ****** ****** ******
      ****** ****** ****** ****** ****** ****** ****** ****** ****** ******
  22  ****** ****** ****** ****** ****** ****** ****** ****** ****** ******
      ****** ****** ****** ****** ****** ****** ****** ****** ****** ******
      ****** ****** ****** ****** ****** ****** ****** ****** ****** ******
  23  ****** ****** ****** ****** ****** ****** ****** ****** ****** ******
      ****** ****** ****** ****** ****** ****** ****** ****** ****** ******
      ****** ****** ****** ****** ****** ****** ****** ****** ****** ******
  24  ****** ****** ****** ****** ****** ****** ****** ****** ****** ******
      ****** ****** ****** ****** ****** ****** ****** ****** ****** ******
      ****** ****** ****** ****** ****** ****** ****** ****** ****** ******
  25  ****** ****** ****** ****** ****** ****** ****** ****** ****** ******
      ****** ****** ****** ****** ****** ****** ****** ****** ****** ******
      ****** ****** ****** ****** ****** ****** ****** ****** ****** ******

 HEAD WILL BE SAVED ON UNIT   51 AT END OF TIME STEP    1, STRESS PERIOD    7
1
  VOLUMETRIC BUDGET FOR ENTIRE MODEL AT END OF TIME STEP    1, STRESS PERIOD   7
  ------------------------------------------------------------------------------

     CUMULATIVE VOLUMES      L**3       RATES FOR THIS TIME STEP      L**3/T
     ------------------                 ------------------------

           IN:                                      IN:
           ---                                      ---
             STORAGE =    34314286.1155               STORAGE =       22990.0348
       CONSTANT HEAD =    16957998.7004         CONSTANT HEAD =       34941.8591
               WELLS =           0.0000                 WELLS =           0.0000
            RECHARGE =    15097200.0000              RECHARGE =           0.0000
      STREAM LEAKAGE =     4274882.3332        STREAM LEAKAGE =        8754.5613

            TOTAL IN =    70644367.1490              TOTAL IN =       66686.4552

          OUT:                                     OUT:
          ----                                     ----
             STORAGE =      721751.3126               STORAGE =           0.0000
       CONSTANT HEAD =           0.0000         CONSTANT HEAD =           0.0000
               WELLS =    19435535.7686                 WELLS =       30415.5489
            RECHARGE =           0.0000              RECHARGE =           0.0000
      STREAM LEAKAGE =    50487082.6739        STREAM LEAKAGE =       36270.9119

           TOTAL OUT =    70644369.7551             TOTAL OUT =       66686.4608

            IN - OUT =          -2.6061              IN - OUT =      -5.6106E-03

 PERCENT DISCREPANCY =          -0.00     PERCENT DISCREPANCY =          -0.00






         TIME SUMMARY AT END OF TIME STEP    1 IN STRESS PERIOD    7
                    SECONDS     MINUTES      HOURS       DAYS        YEARS
                    -----------------------------------------------------------
   TIME STEP LENGTH 7.86240E+06 1.31040E+05  2184.0      91.000     0.24914    
 STRESS PERIOD TIME 7.86240E+06 1.31040E+05  2184.0      91.000     0.24914    
         TOTAL TIME 5.52096E+07 9.20160E+05  15336.      639.00      1.7495    
1
1
                            STRESS PERIOD NO.    8, LENGTH =   91.00000    
                            -----------------------------------------------

                              NUMBER OF TIME STEPS =     1

                               MULTIPLIER FOR DELT =     1.500

                            INITIAL TIME STEP SIZE =   91.00000    

 WELL NO.  LAYER   ROW   COL   STRESS RATE         
 --------------------------------------------------
      1      1     10     17     -0.1009E+05
      2      1     11     19      -420.2    
      3      1     19     16      -9508.    
      4      1      6     15     -0.1040E+05

      4 WELLS

                 RECHARGE =  1.000000E-03

 REUSING STREAM SEGMENT DATA FROM LAST STRESS PERIOD
 
 SOLVING FOR HEAD 


     6 CALLS TO PCG ROUTINE FOR TIME STEP   1 IN STRESS PERIOD    8
    22 TOTAL ITERATIONS

 OUTPUT CONTROL FOR STRESS PERIOD    8   TIME STEP    1
    SAVE BUDGET
    SAVE HEAD FOR ALL LAYERS
    PRINT HEAD FOR ALL LAYERS
 UBDSV2 SAVING "STREAMFLOW OUT  " ON UNIT  50 AT TIME STEP  1, STRESS PERIOD   8



 STREAM LISTING     PERIOD      8   STEP        1

 LAYER ROW COL. STREAM  RCH.  FLOW INTO     FLOW TO   FLOW OUT OF   OVRLND.     DIRECT     STREAM       STREAM     STREAM     STREAM   STREAMBED  STREAMBED
                SEG.NO.  NO.  STRM. RCH.    AQUIFER    STRM. RCH.    RUNOFF     PRECIP       ET          HEAD       DEPTH      WIDTH   CONDCTNC.   GRADIENT

   1   13    1     1     1    1.0000E+05 -1.5897E+03   1.0159E+05  0.000E+00  0.000E+00  0.000E+00  4.84067E+01  1.453E-01  2.000E+01  2.000E+04 -7.949E-02
   1   13    2     1     2    1.0159E+05 -2.5347E+03   1.0412E+05  0.000E+00  0.000E+00  0.000E+00  4.79312E+01  1.471E-01  2.000E+01  2.000E+04 -1.267E-01
   1   14    3     1     3    1.0412E+05 -4.4138E+02   1.0457E+05  0.000E+00  0.000E+00  0.000E+00  4.74552E+01  1.484E-01  2.000E+01  2.000E+04 -2.207E-02
   1   15    4     1     4    1.0457E+05 -4.1480E+02   1.0498E+05  0.000E+00  0.000E+00  0.000E+00  4.69783E+01  1.488E-01  2.000E+01  2.000E+04 -2.074E-02
   1   16    5     1     5    1.0498E+05 -1.5030E+03   1.0648E+05  0.000E+00  0.000E+00  0.000E+00  4.65018E+01  1.496E-01  2.000E+01  2.000E+04 -7.515E-02
   1   16    6     1     6    1.0648E+05 -9.3773E+02   1.0742E+05  0.000E+00  0.000E+00  0.000E+00  4.60256E+01  1.506E-01  2.000E+01  2.000E+04 -4.689E-02
   1   16    7     1     7    1.0742E+05 -8.9658E+02   1.0832E+05  0.000E+00  0.000E+00  0.000E+00  4.55491E+01  1.514E-01  2.000E+01  2.000E+04 -4.483E-02
   1   16    8     1     8    1.0832E+05 -8.5661E+02   1.0917E+05  0.000E+00  0.000E+00  0.000E+00  4.50726E+01  1.521E-01  2.000E+01  2.000E+04 -4.283E-02
   1   16    9     1     9    1.0917E+05 -7.9730E+02   1.0997E+05  0.000E+00  0.000E+00  0.000E+00  4.45960E+01  1.528E-01  2.000E+01  2.000E+04 -3.986E-02
   1   16   10     1    10    1.0997E+05 -7.1042E+02   1.1068E+05  0.000E+00  0.000E+00  0.000E+00  4.41193E+01  1.534E-01  2.000E+01  2.000E+04 -3.552E-02
   1   16   11     1    11    1.1068E+05 -5.8717E+02   1.1127E+05  0.000E+00  0.000E+00  0.000E+00  4.36426E+01  1.540E-01  2.000E+01  2.000E+04 -2.936E-02
   1   16   12     1    12    1.1127E+05 -5.8717E+02   1.1186E+05  0.000E+00  0.000E+00  0.000E+00  4.31658E+01  1.545E-01  2.000E+01  2.000E+04 -2.936E-02
   1   15   13     1    13    1.1186E+05 -3.9705E+02   1.1225E+05  0.000E+00  0.000E+00  0.000E+00  4.26890E+01  1.549E-01  2.000E+01  2.000E+04 -1.985E-02
   1   14   14     1    14    1.1225E+05 -5.0798E+02   1.1276E+05  0.000E+00  0.000E+00  0.000E+00  4.22121E+01  1.553E-01  2.000E+01  2.000E+04 -2.540E-02
   1   13   15     1    15    1.1276E+05 -5.0077E+02   1.1326E+05  0.000E+00  0.000E+00  0.000E+00  4.17352E+01  1.557E-01  2.000E+01  2.000E+04 -2.504E-02
   1   12   16     1    16    1.1326E+05  1.8943E+02   1.1307E+05  0.000E+00  0.000E+00  0.000E+00  4.12581E+01  1.558E-01  2.000E+01  2.000E+04  9.472E-03
   1   12   17     1    17    1.1307E+05  8.6132E+02   1.1221E+05  0.000E+00  0.000E+00  0.000E+00  4.07804E+01  1.554E-01  2.000E+01  2.000E+04  4.307E-02
   1   12   18     1    18    1.1221E+05  2.9816E+02   1.1191E+05  0.000E+00  0.000E+00  0.000E+00  4.03026E+01  1.549E-01  2.000E+01  2.000E+04  1.491E-02
   1   12   19     1    19    1.1191E+05 -3.8524E+02   1.1230E+05  0.000E+00  0.000E+00  0.000E+00  3.98254E+01  1.549E-01  2.000E+01  2.000E+04 -1.926E-02
   1   13   20     1    20    1.1230E+05 -8.2833E+02   1.1313E+05  0.000E+00  0.000E+00  0.000E+00  3.93486E+01  1.554E-01  2.000E+01  2.000E+04 -4.142E-02
   1   14   21     1    21    1.1313E+05 -8.1708E+02   1.1394E+05  0.000E+00  0.000E+00  0.000E+00  3.88720E+01  1.561E-01  2.000E+01  2.000E+04 -4.085E-02
   1   14   22     1    22    1.1394E+05  4.9271E+03   1.0902E+05  0.000E+00  0.000E+00  0.000E+00  3.83930E+01  1.544E-01  2.000E+01  2.000E+04  2.464E-01
   1    9   30     2     1    5.0000E+04 -5.4682E+02   5.0547E+04  0.000E+00  0.000E+00  0.000E+00  4.02412E+01  1.162E-01  2.000E+01  2.000E+04 -2.734E-02
   1    9   29     2     2    5.0547E+04 -8.2843E+02   5.1375E+04  0.000E+00  0.000E+00  0.000E+00  3.99922E+01  1.172E-01  2.000E+01  2.000E+04 -4.142E-02
   1    9   28     2     3    5.1375E+04 -1.0372E+03   5.2412E+04  0.000E+00  0.000E+00  0.000E+00  3.97435E+01  1.185E-01  2.000E+01  2.000E+04 -5.186E-02
   1    9   27     2     4    5.2412E+04 -2.0150E+03   5.4427E+04  0.000E+00  0.000E+00  0.000E+00  3.94956E+01  1.206E-01  2.000E+01  2.000E+04 -1.008E-01
   1   10   26     2     5    5.4427E+04 -1.2424E+03   5.5670E+04  0.000E+00  0.000E+00  0.000E+00  3.92477E+01  1.227E-01  2.000E+01  2.000E+04 -6.212E-02
   1   11   25     2     6    5.5670E+04 -1.0132E+03   5.6683E+04  0.000E+00  0.000E+00  0.000E+00  3.89993E+01  1.243E-01  2.000E+01  2.000E+04 -5.066E-02
   1   12   24     2     7    5.6683E+04 -1.0263E+03   5.7709E+04  0.000E+00  0.000E+00  0.000E+00  3.87506E+01  1.256E-01  2.000E+01  2.000E+04 -5.131E-02
   1   13   23     2     8    5.7709E+04 -1.7730E+02   5.7887E+04  0.000E+00  0.000E+00  0.000E+00  3.85014E+01  1.264E-01  2.000E+01  2.000E+04 -8.865E-03
   1   14   22     2     9    5.7887E+04  2.0693E+03   5.5817E+04  0.000E+00  0.000E+00  0.000E+00  3.82501E+01  1.251E-01  2.000E+01  2.000E+04  1.035E-01
   1   14   22     3     1    1.6483E+05 -8.5323E+03   1.7337E+05  0.000E+00  0.000E+00  0.000E+00  3.77201E+01  1.645E-01  2.000E+01  2.000E+04 -4.266E-01
   1   15   23     3     2    1.7337E+05 -4.2899E+02   1.7380E+05  0.000E+00  0.000E+00  0.000E+00  3.68338E+01  1.671E-01  2.000E+01  2.000E+04 -2.145E-02
   1   15   24     3     3    1.7380E+05 -2.5310E+02   1.7405E+05  0.000E+00  0.000E+00  0.000E+00  3.59451E+01  1.673E-01  2.000E+01  2.000E+04 -1.265E-02
   1   15   25     3     4    1.7405E+05 -2.5711E+02   1.7431E+05  0.000E+00  0.000E+00  0.000E+00  3.50563E+01  1.675E-01  2.000E+01  2.000E+04 -1.286E-02
   1   15   26     3     5    1.7431E+05 -3.2357E+02   1.7463E+05  0.000E+00  0.000E+00  0.000E+00  3.41676E+01  1.676E-01  2.000E+01  2.000E+04 -1.618E-02
   1   16   27     3     6    1.7463E+05 -3.4693E+02   1.7498E+05  0.000E+00  0.000E+00  0.000E+00  3.32789E+01  1.678E-01  2.000E+01  2.000E+04 -1.735E-02
   1   17   28     3     7    1.7498E+05 -1.4760E+03   1.7645E+05  0.000E+00  0.000E+00  0.000E+00  3.23906E+01  1.683E-01  2.000E+01  2.000E+04 -7.380E-02
   1   18   29     3     8    1.7645E+05 -2.7142E+03   1.7917E+05  0.000E+00  0.000E+00  0.000E+00  3.15029E+01  1.695E-01  2.000E+01  2.000E+04 -1.357E-01
   1   18   30     3     9    1.7917E+05 -3.0686E+03   1.8224E+05  0.000E+00  0.000E+00  0.000E+00  3.06156E+01  1.712E-01  2.000E+01  2.000E+04 -1.534E-01



1
              HEAD IN LAYER   1 AT END OF TIME STEP   1 IN STRESS PERIOD    8
  ---------------------------------------------------------------------------

          1      2      3      4      5      6      7      8      9     10
         11     12     13     14     15     16     17     18     19     20
         21     22     23     24     25     26     27     28     29     30
 .........................................................................
   1  ****** ****** ****** ****** ****** ****** ****** ****** ****** ******
      ****** ****** ****** ****** ****** ****** ****** ****** ****** ******
      ****** ****** ****** ****** ****** ****** ****** ****** ****** ******
   2  ****** ****** ****** ****** ****** ****** ****** ****** ****** ******
      ****** ****** ****** ****** ****** ****** ****** ****** ****** ******
      ****** ****** ****** ****** ****** ****** ****** ****** ****** ******
   3  ****** ****** ****** ****** ****** ****** ****** ****** ****** ******
      ****** ****** ****** ****** ****** ****** ****** ****** ****** ******
      ****** ****** ****** ****** ****** ****** ****** ****** ****** ******
   4  ****** ****** ****** ****** ****** ****** ****** ****** ****** ******
      ****** ****** ****** ****** ****** ****** ****** ****** ****** ******
      ****** ****** ****** ****** ****** ****** ****** ****** ****** ******
   5  ****** ****** ****** ****** ****** ****** ****** ****** ****** ******
      ****** ****** ****** ****** ****** ****** ****** ****** ****** ******
      ****** ****** ****** ****** ****** ****** ****** ****** ****** ******
   6  ****** ****** ****** ****** ****** ****** ****** ****** ****** ******
      ****** ****** ****** ****** ****** ****** ****** ****** ****** ******
      ****** ****** ****** ****** ****** ****** ****** ****** ****** ******
   7  ****** ****** ****** ****** ****** ****** ****** ****** ****** ******
      ****** ****** ****** ****** ****** ****** ****** ****** ****** ******
      ****** ****** ****** ****** ****** ****** ****** ****** ****** ******
   8  ****** ****** ****** ****** ****** ****** ****** ****** ****** ******
      ****** ****** ****** ****** ****** ****** ****** ****** ****** ******
      ****** ****** ****** ****** ****** ****** ****** ****** ****** ******
   9  ****** ****** ****** ****** ****** ****** ****** ****** ****** ******
      ****** ****** ****** ****** ****** ****** ****** ****** ****** ******
      ****** ****** ****** ****** ****** ****** ****** ****** ****** ******
  10  ****** ****** ****** ****** ****** ****** ****** ****** ****** ******
      ****** ****** ****** ****** ****** ****** ****** ****** ****** ******
      ****** ****** ****** ****** ****** ****** ****** ****** ****** ******
  11  ****** ****** ****** ****** ****** ****** ****** ****** ****** ******
      ****** ****** ****** ****** ****** ****** ****** ****** ****** ******
      ****** ****** ****** ****** ****** ****** ****** ****** ****** ******
  12  ****** ****** ****** ****** ****** ****** ****** ****** ****** ******
      ****** ****** ****** ****** ****** ****** ****** ****** ****** ******
      ****** ****** ****** ****** ****** ****** ****** ****** ****** ******
  13  ****** ****** ****** ****** ****** ****** ****** ****** ****** ******
      ****** ****** ****** ****** ****** ****** ****** ****** ****** ******
      ****** ****** ****** ****** ****** ****** ****** ****** ****** ******
  14  ****** ****** ****** ****** ****** ****** ****** ****** ****** ******
      ****** ****** ****** ****** ****** ****** ****** ****** ****** ******
      ****** ****** ****** ****** ****** ****** ****** ****** ****** ******
  15  ****** ****** ****** ****** ****** ****** ****** ****** ****** ******
      ****** ****** ****** ****** ****** ****** ****** ****** ****** ******
      ****** ****** ****** ****** ****** ****** ****** ****** ****** ******
  16  ****** ****** ****** ****** ****** ****** ****** ****** ****** ******
      ****** ****** ****** ****** ****** ****** ****** ****** ****** ******
      ****** ****** ****** ****** ****** ****** ****** ****** ****** ******
  17  ****** ****** ****** ****** ****** ****** ****** ****** ****** ******
      ****** ****** ****** ****** ****** ****** ****** ****** ****** ******
      ****** ****** ****** ****** ****** ****** ****** ****** ****** ******
  18  ****** ****** ****** ****** ****** ****** ****** ****** ****** ******
      ****** ****** ****** ****** ****** ****** ****** ****** ****** ******
      ****** ****** ****** ****** ****** ****** ****** ****** ****** ******
  19  ****** ****** ****** ****** ****** ****** ****** ****** ****** ******
      ****** ****** ****** ****** ****** ****** ****** ****** ****** ******
      ****** ****** ****** ****** ****** ****** ****** ****** ****** ******
  20  ****** ****** ****** ****** ****** ****** ****** ****** ****** ******
      ****** ****** ****** ****** ****** ****** ****** ****** ****** ******
      ****** ****** ****** ****** ****** ****** ****** ****** ****** ******
  21  ****** ****** ****** ****** ****** ****** ****** ****** ****** ******
      ****** ****** ****** ****** ****** ****** ****** ****** ****** ******
      ****** ****** ****** ****** ****** ****** ****** ****** ****** ******
  22  ****** ****** ****** ****** ****** ****** ****** ****** ****** ******
      ****** ****** ****** ****** ****** ****** ****** ****** ****** ******
      ****** ****** ****** ****** ****** ****** ****** ****** ****** ******
  23  ****** ****** ****** ****** ****** ****** ****** ****** ****** ******
      ****** ****** ****** ****** ****** ****** ****** ****** ****** ******
      ****** ****** ****** ****** ****** ****** ****** ****** ****** ******
  24  ****** ****** ****** ****** ****** ****** ****** ****** ****** ******
      ****** ****** ****** ****** ****** ****** ****** ****** ****** ******
      ****** ****** ****** ****** ****** ****** ****** ****** ****** ******
  25  ****** ****** ****** ****** ****** ****** ****** ****** ****** ******
      ****** ****** ****** ****** ****** ****** ****** ****** ****** ******
      ****** ****** ****** ****** ****** ****** ****** ****** ****** ******

 HEAD WILL BE SAVED ON UNIT   51 AT END OF TIME STEP    1, STRESS PERIOD    8
1
  VOLUMETRIC BUDGET FOR ENTIRE MODEL AT END OF TIME STEP    1, STRESS PERIOD   8
  ------------------------------------------------------------------------------

     CUMULATIVE VOLUMES      L**3       RATES FOR THIS TIME STEP      L**3/T
     ------------------                 ------------------------

           IN:                                      IN:
           ---                                      ---
             STORAGE =    34481927.3117               STORAGE =        1842.2109
       CONSTANT HEAD =    20115701.5686         CONSTANT HEAD =       34700.0315
               WELLS =           0.0000                 WELLS =           0.0000
            RECHARGE =    17608800.0000              RECHARGE =       27600.0000
      STREAM LEAKAGE =     5034307.1760        STREAM LEAKAGE =        8345.3279

            TOTAL IN =    77240736.0563              TOTAL IN =       72487.5704

          OUT:                                     OUT:
          ----                                     ----
             STORAGE =      857490.9046               STORAGE =        1491.6439
       CONSTANT HEAD =           0.0000         CONSTANT HEAD =           0.0000
               WELLS =    22203350.7216                 WELLS =       30415.5489
            RECHARGE =           0.0000              RECHARGE =           0.0000
      STREAM LEAKAGE =    54179896.3236        STREAM LEAKAGE =       40580.3698

           TOTAL OUT =    77240737.9499             TOTAL OUT =       72487.5626

            IN - OUT =          -1.8935              IN - OUT =       7.8307E-03

 PERCENT DISCREPANCY =          -0.00     PERCENT DISCREPANCY =           0.00






         TIME SUMMARY AT END OF TIME STEP    1 IN STRESS PERIOD    8
                    SECONDS     MINUTES      HOURS       DAYS        YEARS
                    -----------------------------------------------------------
   TIME STEP LENGTH 7.86240E+06 1.31040E+05  2184.0      91.000     0.24914    
 STRESS PERIOD TIME 7.86240E+06 1.31040E+05  2184.0      91.000     0.24914    
         TOTAL TIME 6.30720E+07 1.05120E+06  17520.      730.00      1.9986    
1
1
                            STRESS PERIOD NO.    9, LENGTH =   92.00000    
                            -----------------------------------------------

                              NUMBER OF TIME STEPS =     1

                               MULTIPLIER FOR DELT =     1.500

                            INITIAL TIME STEP SIZE =   92.00000    

 WELL NO.  LAYER   ROW   COL   STRESS RATE         
 --------------------------------------------------
      1      1     10     17     -0.1009E+05
      2      1     11     19      -420.2    
      3      1     19     16      -9508.    
      4      1      6     15     -0.1040E+05

      4 WELLS

                 RECHARGE =  5.000000E-04

 REUSING STREAM SEGMENT DATA FROM LAST STRESS PERIOD
 
 SOLVING FOR HEAD 


     6 CALLS TO PCG ROUTINE FOR TIME STEP   1 IN STRESS PERIOD    9
    23 TOTAL ITERATIONS

 OUTPUT CONTROL FOR STRESS PERIOD    9   TIME STEP    1
    SAVE BUDGET
    SAVE HEAD FOR ALL LAYERS
    PRINT HEAD FOR ALL LAYERS
 UBDSV2 SAVING "STREAMFLOW OUT  " ON UNIT  50 AT TIME STEP  1, STRESS PERIOD   9



 STREAM LISTING     PERIOD      9   STEP        1

 LAYER ROW COL. STREAM  RCH.  FLOW INTO     FLOW TO   FLOW OUT OF   OVRLND.     DIRECT     STREAM       STREAM     STREAM     STREAM   STREAMBED  STREAMBED
                SEG.NO.  NO.  STRM. RCH.    AQUIFER    STRM. RCH.    RUNOFF     PRECIP       ET          HEAD       DEPTH      WIDTH   CONDCTNC.   GRADIENT

   1   13    1     1     1    1.0000E+05 -1.3658E+03   1.0137E+05  0.000E+00  0.000E+00  0.000E+00  4.84066E+01  1.452E-01  2.000E+01  2.000E+04 -6.829E-02
   1   13    2     1     2    1.0137E+05 -2.2807E+03   1.0365E+05  0.000E+00  0.000E+00  0.000E+00  4.79309E+01  1.468E-01  2.000E+01  2.000E+04 -1.140E-01
   1   14    3     1     3    1.0365E+05 -3.6892E+02   1.0402E+05  0.000E+00  0.000E+00  0.000E+00  4.74548E+01  1.480E-01  2.000E+01  2.000E+04 -1.845E-02
   1   15    4     1     4    1.0402E+05 -3.4163E+02   1.0436E+05  0.000E+00  0.000E+00  0.000E+00  4.69778E+01  1.483E-01  2.000E+01  2.000E+04 -1.708E-02
   1   16    5     1     5    1.0436E+05 -1.3092E+03   1.0567E+05  0.000E+00  0.000E+00  0.000E+00  4.65012E+01  1.490E-01  2.000E+01  2.000E+04 -6.546E-02
   1   16    6     1     6    1.0567E+05 -8.1635E+02   1.0648E+05  0.000E+00  0.000E+00  0.000E+00  4.60249E+01  1.499E-01  2.000E+01  2.000E+04 -4.082E-02
   1   16    7     1     7    1.0648E+05 -7.7881E+02   1.0726E+05  0.000E+00  0.000E+00  0.000E+00  4.55483E+01  1.505E-01  2.000E+01  2.000E+04 -3.894E-02
   1   16    8     1     8    1.0726E+05 -7.4037E+02   1.0800E+05  0.000E+00  0.000E+00  0.000E+00  4.50716E+01  1.512E-01  2.000E+01  2.000E+04 -3.702E-02
   1   16    9     1     9    1.0800E+05 -6.8279E+02   1.0868E+05  0.000E+00  0.000E+00  0.000E+00  4.45950E+01  1.518E-01  2.000E+01  2.000E+04 -3.414E-02
   1   16   10     1    10    1.0868E+05 -5.9816E+02   1.0928E+05  0.000E+00  0.000E+00  0.000E+00  4.41182E+01  1.523E-01  2.000E+01  2.000E+04 -2.991E-02
   1   16   11     1    11    1.0928E+05 -4.7620E+02   1.0976E+05  0.000E+00  0.000E+00  0.000E+00  4.36414E+01  1.528E-01  2.000E+01  2.000E+04 -2.381E-02
   1   16   12     1    12    1.0976E+05 -3.9676E+02   1.1016E+05  0.000E+00  0.000E+00  0.000E+00  4.31645E+01  1.531E-01  2.000E+01  2.000E+04 -1.984E-02
   1   15   13     1    13    1.1016E+05 -1.8327E+02   1.1034E+05  0.000E+00  0.000E+00  0.000E+00  4.26875E+01  1.534E-01  2.000E+01  2.000E+04 -9.164E-03
   1   14   14     1    14    1.1034E+05 -2.7925E+02   1.1062E+05  0.000E+00  0.000E+00  0.000E+00  4.22104E+01  1.536E-01  2.000E+01  2.000E+04 -1.396E-02
   1   13   15     1    15    1.1062E+05 -2.6493E+02   1.1088E+05  0.000E+00  0.000E+00  0.000E+00  4.17333E+01  1.538E-01  2.000E+01  2.000E+04 -1.325E-02
   1   12   16     1    16    1.1088E+05  4.3574E+02   1.1045E+05  0.000E+00  0.000E+00  0.000E+00  4.12560E+01  1.537E-01  2.000E+01  2.000E+04  2.179E-02
   1   12   17     1    17    1.1045E+05  1.0288E+03   1.0942E+05  0.000E+00  0.000E+00  0.000E+00  4.07781E+01  1.531E-01  2.000E+01  2.000E+04  5.144E-02
   1   12   18     1    18    1.0942E+05  4.5742E+02   1.0896E+05  0.000E+00  0.000E+00  0.000E+00  4.03002E+01  1.525E-01  2.000E+01  2.000E+04  2.287E-02
   1   12   19     1    19    1.0896E+05 -1.9363E+02   1.0915E+05  0.000E+00  0.000E+00  0.000E+00  3.98228E+01  1.524E-01  2.000E+01  2.000E+04 -9.682E-03
   1   13   20     1    20    1.0915E+05 -6.5264E+02   1.0981E+05  0.000E+00  0.000E+00  0.000E+00  3.93459E+01  1.527E-01  2.000E+01  2.000E+04 -3.263E-02
   1   14   21     1    21    1.0981E+05 -6.4443E+02   1.1045E+05  0.000E+00  0.000E+00  0.000E+00  3.88692E+01  1.533E-01  2.000E+01  2.000E+04 -3.222E-02
   1   14   22     1    22    1.1045E+05  4.9643E+03   1.0549E+05  0.000E+00  0.000E+00  0.000E+00  3.83901E+01  1.515E-01  2.000E+01  2.000E+04  2.482E-01
   1    9   30     2     1    5.0000E+04 -4.2242E+02   5.0422E+04  0.000E+00  0.000E+00  0.000E+00  4.02412E+01  1.162E-01  2.000E+01  2.000E+04 -2.112E-02
   1    9   29     2     2    5.0422E+04 -7.0372E+02   5.1126E+04  0.000E+00  0.000E+00  0.000E+00  3.99919E+01  1.169E-01  2.000E+01  2.000E+04 -3.519E-02
   1    9   28     2     3    5.1126E+04 -9.1031E+02   5.2036E+04  0.000E+00  0.000E+00  0.000E+00  3.97431E+01  1.181E-01  2.000E+01  2.000E+04 -4.552E-02
   1    9   27     2     4    5.2036E+04 -1.8355E+03   5.3872E+04  0.000E+00  0.000E+00  0.000E+00  3.94949E+01  1.199E-01  2.000E+01  2.000E+04 -9.177E-02
   1   10   26     2     5    5.3872E+04 -1.0662E+03   5.4938E+04  0.000E+00  0.000E+00  0.000E+00  3.92469E+01  1.219E-01  2.000E+01  2.000E+04 -5.331E-02
   1   11   25     2     6    5.4938E+04 -8.4460E+02   5.5783E+04  0.000E+00  0.000E+00  0.000E+00  3.89982E+01  1.232E-01  2.000E+01  2.000E+04 -4.223E-02
   1   12   24     2     7    5.5783E+04 -8.7107E+02   5.6654E+04  0.000E+00  0.000E+00  0.000E+00  3.87493E+01  1.243E-01  2.000E+01  2.000E+04 -4.355E-02
   1   13   23     2     8    5.6654E+04 -1.2981E+02   5.6784E+04  0.000E+00  0.000E+00  0.000E+00  3.85000E+01  1.250E-01  2.000E+01  2.000E+04 -6.490E-03
   1   14   22     2     9    5.6784E+04  2.1351E+03   5.4649E+04  0.000E+00  0.000E+00  0.000E+00  3.82486E+01  1.236E-01  2.000E+01  2.000E+04  1.068E-01
   1   14   22     3     1    1.6014E+05 -8.4918E+03   1.6863E+05  0.000E+00  0.000E+00  0.000E+00  3.77173E+01  1.617E-01  2.000E+01  2.000E+04 -4.246E-01
   1   15   23     3     2    1.6863E+05 -3.7632E+02   1.6900E+05  0.000E+00  0.000E+00  0.000E+00  3.68310E+01  1.643E-01  2.000E+01  2.000E+04 -1.882E-02
   1   15   24     3     3    1.6900E+05 -2.1005E+02   1.6921E+05  0.000E+00  0.000E+00  0.000E+00  3.59423E+01  1.645E-01  2.000E+01  2.000E+04 -1.050E-02
   1   15   25     3     4    1.6921E+05 -2.1381E+02   1.6943E+05  0.000E+00  0.000E+00  0.000E+00  3.50535E+01  1.646E-01  2.000E+01  2.000E+04 -1.069E-02
   1   15   26     3     5    1.6943E+05 -2.7596E+02   1.6970E+05  0.000E+00  0.000E+00  0.000E+00  3.41648E+01  1.648E-01  2.000E+01  2.000E+04 -1.380E-02
   1   16   27     3     6    1.6970E+05 -2.9090E+02   1.6999E+05  0.000E+00  0.000E+00  0.000E+00  3.32761E+01  1.649E-01  2.000E+01  2.000E+04 -1.454E-02
   1   17   28     3     7    1.6999E+05 -1.3223E+03   1.7132E+05  0.000E+00  0.000E+00  0.000E+00  3.23876E+01  1.654E-01  2.000E+01  2.000E+04 -6.612E-02
   1   18   29     3     8    1.7132E+05 -2.5380E+03   1.7386E+05  0.000E+00  0.000E+00  0.000E+00  3.14999E+01  1.665E-01  2.000E+01  2.000E+04 -1.269E-01
   1   18   30     3     9    1.7386E+05 -2.9362E+03   1.7679E+05  0.000E+00  0.000E+00  0.000E+00  3.06126E+01  1.681E-01  2.000E+01  2.000E+04 -1.468E-01



1
              HEAD IN LAYER   1 AT END OF TIME STEP   1 IN STRESS PERIOD    9
  ---------------------------------------------------------------------------

          1      2      3      4      5      6      7      8      9     10
         11     12     13     14     15     16     17     18     19     20
         21     22     23     24     25     26     27     28     29     30
 .........................................................................
   1  ****** ****** ****** ****** ****** ****** ****** ****** ****** ******
      ****** ****** ****** ****** ****** ****** ****** ****** ****** ******
      ****** ****** ****** ****** ****** ****** ****** ****** ****** ******
   2  ****** ****** ****** ****** ****** ****** ****** ****** ****** ******
      ****** ****** ****** ****** ****** ****** ****** ****** ****** ******
      ****** ****** ****** ****** ****** ****** ****** ****** ****** ******
   3  ****** ****** ****** ****** ****** ****** ****** ****** ****** ******
      ****** ****** ****** ****** ****** ****** ****** ****** ****** ******
      ****** ****** ****** ****** ****** ****** ****** ****** ****** ******
   4  ****** ****** ****** ****** ****** ****** ****** ****** ****** ******
      ****** ****** ****** ****** ****** ****** ****** ****** ****** ******
      ****** ****** ****** ****** ****** ****** ****** ****** ****** ******
   5  ****** ****** ****** ****** ****** ****** ****** ****** ****** ******
      ****** ****** ****** ****** ****** ****** ****** ****** ****** ******
      ****** ****** ****** ****** ****** ****** ****** ****** ****** ******
   6  ****** ****** ****** ****** ****** ****** ****** ****** ****** ******
      ****** ****** ****** ****** ****** ****** ****** ****** ****** ******
      ****** ****** ****** ****** ****** ****** ****** ****** ****** ******
   7  ****** ****** ****** ****** ****** ****** ****** ****** ****** ******
      ****** ****** ****** ****** ****** ****** ****** ****** ****** ******
      ****** ****** ****** ****** ****** ****** ****** ****** ****** ******
   8  ****** ****** ****** ****** ****** ****** ****** ****** ****** ******
      ****** ****** ****** ****** ****** ****** ****** ****** ****** ******
      ****** ****** ****** ****** ****** ****** ****** ****** ****** ******
   9  ****** ****** ****** ****** ****** ****** ****** ****** ****** ******
      ****** ****** ****** ****** ****** ****** ****** ****** ****** ******
      ****** ****** ****** ****** ****** ****** ****** ****** ****** ******
  10  ****** ****** ****** ****** ****** ****** ****** ****** ****** ******
      ****** ****** ****** ****** ****** ****** ****** ****** ****** ******
      ****** ****** ****** ****** ****** ****** ****** ****** ****** ******
  11  ****** ****** ****** ****** ****** ****** ****** ****** ****** ******
      ****** ****** ****** ****** ****** ****** ****** ****** ****** ******
      ****** ****** ****** ****** ****** ****** ****** ****** ****** ******
  12  ****** ****** ****** ****** ****** ****** ****** ****** ****** ******
      ****** ****** ****** ****** ****** ****** ****** ****** ****** ******
      ****** ****** ****** ****** ****** ****** ****** ****** ****** ******
  13  ****** ****** ****** ****** ****** ****** ****** ****** ****** ******
      ****** ****** ****** ****** ****** ****** ****** ****** ****** ******
      ****** ****** ****** ****** ****** ****** ****** ****** ****** ******
  14  ****** ****** ****** ****** ****** ****** ****** ****** ****** ******
      ****** ****** ****** ****** ****** ****** ****** ****** ****** ******
      ****** ****** ****** ****** ****** ****** ****** ****** ****** ******
  15  ****** ****** ****** ****** ****** ****** ****** ****** ****** ******
      ****** ****** ****** ****** ****** ****** ****** ****** ****** ******
      ****** ****** ****** ****** ****** ****** ****** ****** ****** ******
  16  ****** ****** ****** ****** ****** ****** ****** ****** ****** ******
      ****** ****** ****** ****** ****** ****** ****** ****** ****** ******
      ****** ****** ****** ****** ****** ****** ****** ****** ****** ******
  17  ****** ****** ****** ****** ****** ****** ****** ****** ****** ******
      ****** ****** ****** ****** ****** ****** ****** ****** ****** ******
      ****** ****** ****** ****** ****** ****** ****** ****** ****** ******
  18  ****** ****** ****** ****** ****** ****** ****** ****** ****** ******
      ****** ****** ****** ****** ****** ****** ****** ****** ****** ******
      ****** ****** ****** ****** ****** ****** ****** ****** ****** ******
  19  ****** ****** ****** ****** ****** ****** ****** ****** ****** ******
      ****** ****** ****** ****** ****** ****** ****** ****** ****** ******
      ****** ****** ****** ****** ****** ****** ****** ****** ****** ******
  20  ****** ****** ****** ****** ****** ****** ****** ****** ****** ******
      ****** ****** ****** ****** ****** ****** ****** ****** ****** ******
      ****** ****** ****** ****** ****** ****** ****** ****** ****** ******
  21  ****** ****** ****** ****** ****** ****** ****** ****** ****** ******
      ****** ****** ****** ****** ****** ****** ****** ****** ****** ******
      ****** ****** ****** ****** ****** ****** ****** ****** ****** ******
  22  ****** ****** ****** ****** ****** ****** ****** ****** ****** ******
      ****** ****** ****** ****** ****** ****** ****** ****** ****** ******
      ****** ****** ****** ****** ****** ****** ****** ****** ****** ******
  23  ****** ****** ****** ****** ****** ****** ****** ****** ****** ******
      ****** ****** ****** ****** ****** ****** ****** ****** ****** ******
      ****** ****** ****** ****** ****** ****** ****** ****** ****** ******
  24  ****** ****** ****** ****** ****** ****** ****** ****** ****** ******
      ****** ****** ****** ****** ****** ****** ****** ****** ****** ******
      ****** ****** ****** ****** ****** ****** ****** ****** ****** ******
  25  ****** ****** ****** ****** ****** ****** ****** ****** ****** ******
      ****** ****** ****** ****** ****** ****** ****** ****** ****** ******
      ****** ****** ****** ****** ****** ****** ****** ****** ****** ******

 HEAD WILL BE SAVED ON UNIT   51 AT END OF TIME STEP    1, STRESS PERIOD    9
1
  VOLUMETRIC BUDGET FOR ENTIRE MODEL AT END OF TIME STEP    1, STRESS PERIOD   9
  ------------------------------------------------------------------------------

     CUMULATIVE VOLUMES      L**3       RATES FOR THIS TIME STEP      L**3/T
     ------------------                 ------------------------

           IN:                                      IN:
           ---                                      ---
             STORAGE =    35172339.2258               STORAGE =        7504.4773
       CONSTANT HEAD =    23418736.5660         CONSTANT HEAD =       35902.5543
               WELLS =           0.0000                 WELLS =           0.0000
            RECHARGE =    18878400.0000              RECHARGE =       13800.0000
      STREAM LEAKAGE =     5864275.1725        STREAM LEAKAGE =        9021.3913

            TOTAL IN =    83333750.9643              TOTAL IN =       66228.4229

          OUT:                                     OUT:
          ----                                     ----
             STORAGE =      857490.9046               STORAGE =           0.0000
       CONSTANT HEAD =           0.0000         CONSTANT HEAD =           0.0000
               WELLS =    25001581.2235                 WELLS =       30415.5489
            RECHARGE =           0.0000              RECHARGE =           0.0000
      STREAM LEAKAGE =    57474680.8038        STREAM LEAKAGE =       35812.8748

           TOTAL OUT =    83333752.9320             TOTAL OUT =       66228.4237

            IN - OUT =          -1.9677              IN - OUT =      -8.0605E-04

 PERCENT DISCREPANCY =          -0.00     PERCENT DISCREPANCY =          -0.00






         TIME SUMMARY AT END OF TIME STEP    1 IN STRESS PERIOD    9
                    SECONDS     MINUTES      HOURS       DAYS        YEARS
                    -----------------------------------------------------------
   TIME STEP LENGTH 7.94880E+06 1.32480E+05  2208.0      92.000     0.25188    
 STRESS PERIOD TIME 7.94880E+06 1.32480E+05  2208.0      92.000     0.25188    
         TOTAL TIME 7.10208E+07 1.18368E+06  19728.      822.00      2.2505    
1
1
                            STRESS PERIOD NO.   10, LENGTH =   91.00000    
                            -----------------------------------------------

                              NUMBER OF TIME STEPS =     1

                               MULTIPLIER FOR DELT =     1.500

                            INITIAL TIME STEP SIZE =   91.00000    

 WELL NO.  LAYER   ROW   COL   STRESS RATE         
 --------------------------------------------------
      1      1     10     17     -0.1009E+05
      2      1     11     19      -420.2    
      3      1     19     16      -9508.    
      4      1      6     15     -0.1040E+05

      4 WELLS

                 RECHARGE =  2.000000E-03

 REUSING STREAM SEGMENT DATA FROM LAST STRESS PERIOD
 
 SOLVING FOR HEAD 


     7 CALLS TO PCG ROUTINE FOR TIME STEP   1 IN STRESS PERIOD   10
    26 TOTAL ITERATIONS

 OUTPUT CONTROL FOR STRESS PERIOD   10   TIME STEP    1
    SAVE BUDGET
    SAVE HEAD FOR ALL LAYERS
    PRINT HEAD FOR ALL LAYERS
 UBDSV2 SAVING "STREAMFLOW OUT  " ON UNIT  50 AT TIME STEP  1, STRESS PERIOD  10



 STREAM LISTING     PERIOD     10   STEP        1

 LAYER ROW COL. STREAM  RCH.  FLOW INTO     FLOW TO   FLOW OUT OF   OVRLND.     DIRECT     STREAM       STREAM     STREAM     STREAM   STREAMBED  STREAMBED
                SEG.NO.  NO.  STRM. RCH.    AQUIFER    STRM. RCH.    RUNOFF     PRECIP       ET          HEAD       DEPTH      WIDTH   CONDCTNC.   GRADIENT

   1   13    1     1     1    1.0000E+05 -1.8113E+03   1.0181E+05  0.000E+00  0.000E+00  0.000E+00  4.84068E+01  1.454E-01  2.000E+01  2.000E+04 -9.057E-02
   1   13    2     1     2    1.0181E+05 -2.7741E+03   1.0459E+05  0.000E+00  0.000E+00  0.000E+00  4.79315E+01  1.474E-01  2.000E+01  2.000E+04 -1.387E-01
   1   14    3     1     3    1.0459E+05 -5.5421E+02   1.0514E+05  0.000E+00  0.000E+00  0.000E+00  4.74557E+01  1.488E-01  2.000E+01  2.000E+04 -2.771E-02
   1   15    4     1     4    1.0514E+05 -5.4006E+02   1.0568E+05  0.000E+00  0.000E+00  0.000E+00  4.69788E+01  1.493E-01  2.000E+01  2.000E+04 -2.700E-02
   1   16    5     1     5    1.0568E+05 -1.9273E+03   1.0761E+05  0.000E+00  0.000E+00  0.000E+00  4.65026E+01  1.503E-01  2.000E+01  2.000E+04 -9.636E-02
   1   16    6     1     6    1.0761E+05 -1.1776E+03   1.0878E+05  0.000E+00  0.000E+00  0.000E+00  4.60267E+01  1.517E-01  2.000E+01  2.000E+04 -5.888E-02
   1   16    7     1     7    1.0878E+05 -1.1222E+03   1.0991E+05  0.000E+00  0.000E+00  0.000E+00  4.55503E+01  1.526E-01  2.000E+01  2.000E+04 -5.611E-02
   1   16    8     1     8    1.0991E+05 -1.0783E+03   1.1099E+05  0.000E+00  0.000E+00  0.000E+00  4.50740E+01  1.535E-01  2.000E+01  2.000E+04 -5.391E-02
   1   16    9     1     9    1.1099E+05 -1.0193E+03   1.1200E+05  0.000E+00  0.000E+00  0.000E+00  4.45976E+01  1.544E-01  2.000E+01  2.000E+04 -5.096E-02
   1   16   10     1    10    1.1200E+05 -9.3501E+02   1.1294E+05  0.000E+00  0.000E+00  0.000E+00  4.41211E+01  1.552E-01  2.000E+01  2.000E+04 -4.675E-02
   1   16   11     1    11    1.1294E+05 -8.1674E+02   1.1376E+05  0.000E+00  0.000E+00  0.000E+00  4.36446E+01  1.559E-01  2.000E+01  2.000E+04 -4.084E-02
   1   16   12     1    12    1.1376E+05 -9.6486E+02   1.1472E+05  0.000E+00  0.000E+00  0.000E+00  4.31680E+01  1.567E-01  2.000E+01  2.000E+04 -4.824E-02
   1   15   13     1    13    1.1472E+05 -7.6693E+02   1.1549E+05  0.000E+00  0.000E+00  0.000E+00  4.26915E+01  1.574E-01  2.000E+01  2.000E+04 -3.835E-02
   1   14   14     1    14    1.1549E+05 -8.6908E+02   1.1636E+05  0.000E+00  0.000E+00  0.000E+00  4.22149E+01  1.581E-01  2.000E+01  2.000E+04 -4.345E-02
   1   13   15     1    15    1.1636E+05 -8.4391E+02   1.1720E+05  0.000E+00  0.000E+00  0.000E+00  4.17383E+01  1.588E-01  2.000E+01  2.000E+04 -4.220E-02
   1   12   16     1    16    1.1720E+05 -1.2029E+02   1.1732E+05  0.000E+00  0.000E+00  0.000E+00  4.12614E+01  1.592E-01  2.000E+01  2.000E+04 -6.014E-03
   1   12   17     1    17    1.1732E+05  6.0633E+02   1.1671E+05  0.000E+00  0.000E+00  0.000E+00  4.07840E+01  1.590E-01  2.000E+01  2.000E+04  3.032E-02
   1   12   18     1    18    1.1671E+05  3.8576E+01   1.1668E+05  0.000E+00  0.000E+00  0.000E+00  4.03064E+01  1.587E-01  2.000E+01  2.000E+04  1.929E-03
   1   12   19     1    19    1.1668E+05 -7.0920E+02   1.1739E+05  0.000E+00  0.000E+00  0.000E+00  3.98294E+01  1.590E-01  2.000E+01  2.000E+04 -3.546E-02
   1   13   20     1    20    1.1739E+05 -1.1725E+03   1.1856E+05  0.000E+00  0.000E+00  0.000E+00  3.93529E+01  1.597E-01  2.000E+01  2.000E+04 -5.862E-02
   1   14   21     1    21    1.1856E+05 -1.1687E+03   1.1973E+05  0.000E+00  0.000E+00  0.000E+00  3.88766E+01  1.607E-01  2.000E+01  2.000E+04 -5.843E-02
   1   14   22     1    22    1.1973E+05  4.8401E+03   1.1489E+05  0.000E+00  0.000E+00  0.000E+00  3.83978E+01  1.592E-01  2.000E+01  2.000E+04  2.420E-01
   1    9   30     2     1    5.0000E+04 -8.3600E+02   5.0836E+04  0.000E+00  0.000E+00  0.000E+00  4.02414E+01  1.164E-01  2.000E+01  2.000E+04 -4.180E-02
   1    9   29     2     2    5.0836E+04 -1.1150E+03   5.1951E+04  0.000E+00  0.000E+00  0.000E+00  3.99928E+01  1.178E-01  2.000E+01  2.000E+04 -5.575E-02
   1    9   28     2     3    5.1951E+04 -1.3206E+03   5.3272E+04  0.000E+00  0.000E+00  0.000E+00  3.97445E+01  1.195E-01  2.000E+01  2.000E+04 -6.603E-02
   1    9   27     2     4    5.3272E+04 -2.3866E+03   5.5658E+04  0.000E+00  0.000E+00  0.000E+00  3.94970E+01  1.220E-01  2.000E+01  2.000E+04 -1.193E-01
   1   10   26     2     5    5.5658E+04 -1.6177E+03   5.7276E+04  0.000E+00  0.000E+00  0.000E+00  3.92496E+01  1.246E-01  2.000E+01  2.000E+04 -8.088E-02
   1   11   25     2     6    5.7276E+04 -1.3716E+03   5.8647E+04  0.000E+00  0.000E+00  0.000E+00  3.90016E+01  1.266E-01  2.000E+01  2.000E+04 -6.858E-02
   1   12   24     2     7    5.8647E+04 -1.3479E+03   5.9995E+04  0.000E+00  0.000E+00  0.000E+00  3.87534E+01  1.284E-01  2.000E+01  2.000E+04 -6.740E-02
   1   13   23     2     8    5.9995E+04 -2.7831E+02   6.0274E+04  0.000E+00  0.000E+00  0.000E+00  3.85044E+01  1.294E-01  2.000E+01  2.000E+04 -1.392E-02
   1   14   22     2     9    6.0274E+04  1.9505E+03   5.8323E+04  0.000E+00  0.000E+00  0.000E+00  3.82534E+01  1.284E-01  2.000E+01  2.000E+04  9.753E-02
   1   14   22     3     1    1.7321E+05 -8.6179E+03   1.8183E+05  0.000E+00  0.000E+00  0.000E+00  3.77249E+01  1.694E-01  2.000E+01  2.000E+04 -4.309E-01
   1   15   23     3     2    1.8183E+05 -5.3879E+02   1.8237E+05  0.000E+00  0.000E+00  0.000E+00  3.68386E+01  1.720E-01  2.000E+01  2.000E+04 -2.694E-02
   1   15   24     3     3    1.8237E+05 -3.4719E+02   1.8271E+05  0.000E+00  0.000E+00  0.000E+00  3.59500E+01  1.722E-01  2.000E+01  2.000E+04 -1.736E-02
   1   15   25     3     4    1.8271E+05 -3.5437E+02   1.8307E+05  0.000E+00  0.000E+00  0.000E+00  3.50613E+01  1.724E-01  2.000E+01  2.000E+04 -1.772E-02
   1   15   26     3     5    1.8307E+05 -4.3818E+02   1.8351E+05  0.000E+00  0.000E+00  0.000E+00  3.41727E+01  1.727E-01  2.000E+01  2.000E+04 -2.191E-02
   1   16   27     3     6    1.8351E+05 -4.7673E+02   1.8398E+05  0.000E+00  0.000E+00  0.000E+00  3.32840E+01  1.729E-01  2.000E+01  2.000E+04 -2.384E-02
   1   17   28     3     7    1.8398E+05 -1.8429E+03   1.8583E+05  0.000E+00  0.000E+00  0.000E+00  3.23958E+01  1.736E-01  2.000E+01  2.000E+04 -9.214E-02
   1   18   29     3     8    1.8583E+05 -3.0892E+03   1.8891E+05  0.000E+00  0.000E+00  0.000E+00  3.15083E+01  1.750E-01  2.000E+01  2.000E+04 -1.545E-01
   1   18   30     3     9    1.8891E+05 -3.3614E+03   1.9228E+05  0.000E+00  0.000E+00  0.000E+00  3.06212E+01  1.768E-01  2.000E+01  2.000E+04 -1.681E-01



1
              HEAD IN LAYER   1 AT END OF TIME STEP   1 IN STRESS PERIOD   10
  ---------------------------------------------------------------------------

          1      2      3      4      5      6      7      8      9     10
         11     12     13     14     15     16     17     18     19     20
         21     22     23     24     25     26     27     28     29     30
 .........................................................................
   1  ****** ****** ****** ****** ****** ****** ****** ****** ****** ******
      ****** ****** ****** ****** ****** ****** ****** ****** ****** ******
      ****** ****** ****** ****** ****** ****** ****** ****** ****** ******
   2  ****** ****** ****** ****** ****** ****** ****** ****** ****** ******
      ****** ****** ****** ****** ****** ****** ****** ****** ****** ******
      ****** ****** ****** ****** ****** ****** ****** ****** ****** ******
   3  ****** ****** ****** ****** ****** ****** ****** ****** ****** ******
      ****** ****** ****** ****** ****** ****** ****** ****** ****** ******
      ****** ****** ****** ****** ****** ****** ****** ****** ****** ******
   4  ****** ****** ****** ****** ****** ****** ****** ****** ****** ******
      ****** ****** ****** ****** ****** ****** ****** ****** ****** ******
      ****** ****** ****** ****** ****** ****** ****** ****** ****** ******
   5  ****** ****** ****** ****** ****** ****** ****** ****** ****** ******
      ****** ****** ****** ****** ****** ****** ****** ****** ****** ******
      ****** ****** ****** ****** ****** ****** ****** ****** ****** ******
   6  ****** ****** ****** ****** ****** ****** ****** ****** ****** ******
      ****** ****** ****** ****** ****** ****** ****** ****** ****** ******
      ****** ****** ****** ****** ****** ****** ****** ****** ****** ******
   7  ****** ****** ****** ****** ****** ****** ****** ****** ****** ******
      ****** ****** ****** ****** ****** ****** ****** ****** ****** ******
      ****** ****** ****** ****** ****** ****** ****** ****** ****** ******
   8  ****** ****** ****** ****** ****** ****** ****** ****** ****** ******
      ****** ****** ****** ****** ****** ****** ****** ****** ****** ******
      ****** ****** ****** ****** ****** ****** ****** ****** ****** ******
   9  ****** ****** ****** ****** ****** ****** ****** ****** ****** ******
      ****** ****** ****** ****** ****** ****** ****** ****** ****** ******
      ****** ****** ****** ****** ****** ****** ****** ****** ****** ******
  10  ****** ****** ****** ****** ****** ****** ****** ****** ****** ******
      ****** ****** ****** ****** ****** ****** ****** ****** ****** ******
      ****** ****** ****** ****** ****** ****** ****** ****** ****** ******
  11  ****** ****** ****** ****** ****** ****** ****** ****** ****** ******
      ****** ****** ****** ****** ****** ****** ****** ****** ****** ******
      ****** ****** ****** ****** ****** ****** ****** ****** ****** ******
  12  ****** ****** ****** ****** ****** ****** ****** ****** ****** ******
      ****** ****** ****** ****** ****** ****** ****** ****** ****** ******
      ****** ****** ****** ****** ****** ****** ****** ****** ****** ******
  13  ****** ****** ****** ****** ****** ****** ****** ****** ****** ******
      ****** ****** ****** ****** ****** ****** ****** ****** ****** ******
      ****** ****** ****** ****** ****** ****** ****** ****** ****** ******
  14  ****** ****** ****** ****** ****** ****** ****** ****** ****** ******
      ****** ****** ****** ****** ****** ****** ****** ****** ****** ******
      ****** ****** ****** ****** ****** ****** ****** ****** ****** ******
  15  ****** ****** ****** ****** ****** ****** ****** ****** ****** ******
      ****** ****** ****** ****** ****** ****** ****** ****** ****** ******
      ****** ****** ****** ****** ****** ****** ****** ****** ****** ******
  16  ****** ****** ****** ****** ****** ****** ****** ****** ****** ******
      ****** ****** ****** ****** ****** ****** ****** ****** ****** ******
      ****** ****** ****** ****** ****** ****** ****** ****** ****** ******
  17  ****** ****** ****** ****** ****** ****** ****** ****** ****** ******
      ****** ****** ****** ****** ****** ****** ****** ****** ****** ******
      ****** ****** ****** ****** ****** ****** ****** ****** ****** ******
  18  ****** ****** ****** ****** ****** ****** ****** ****** ****** ******
      ****** ****** ****** ****** ****** ****** ****** ****** ****** ******
      ****** ****** ****** ****** ****** ****** ****** ****** ****** ******
  19  ****** ****** ****** ****** ****** ****** ****** ****** ****** ******
      ****** ****** ****** ****** ****** ****** ****** ****** ****** ******
      ****** ****** ****** ****** ****** ****** ****** ****** ****** ******
  20  ****** ****** ****** ****** ****** ****** ****** ****** ****** ******
      ****** ****** ****** ****** ****** ****** ****** ****** ****** ******
      ****** ****** ****** ****** ****** ****** ****** ****** ****** ******
  21  ****** ****** ****** ****** ****** ****** ****** ****** ****** ******
      ****** ****** ****** ****** ****** ****** ****** ****** ****** ******
      ****** ****** ****** ****** ****** ****** ****** ****** ****** ******
  22  ****** ****** ****** ****** ****** ****** ****** ****** ****** ******
      ****** ****** ****** ****** ****** ****** ****** ****** ****** ******
      ****** ****** ****** ****** ****** ****** ****** ****** ****** ******
  23  ****** ****** ****** ****** ****** ****** ****** ****** ****** ******
      ****** ****** ****** ****** ****** ****** ****** ****** ****** ******
      ****** ****** ****** ****** ****** ****** ****** ****** ****** ******
  24  ****** ****** ****** ****** ****** ****** ****** ****** ****** ******
      ****** ****** ****** ****** ****** ****** ****** ****** ****** ******
      ****** ****** ****** ****** ****** ****** ****** ****** ****** ******
  25  ****** ****** ****** ****** ****** ****** ****** ****** ****** ******
      ****** ****** ****** ****** ****** ****** ****** ****** ****** ******
      ****** ****** ****** ****** ****** ****** ****** ****** ****** ******

 HEAD WILL BE SAVED ON UNIT   51 AT END OF TIME STEP    1, STRESS PERIOD   10
1
  VOLUMETRIC BUDGET FOR ENTIRE MODEL AT END OF TIME STEP    1, STRESS PERIOD  10
  ------------------------------------------------------------------------------

     CUMULATIVE VOLUMES      L**3       RATES FOR THIS TIME STEP      L**3/T
     ------------------                 ------------------------

           IN:                                      IN:
           ---                                      ---
             STORAGE =    35172339.2258               STORAGE =           0.0000
       CONSTANT HEAD =    26419340.4445         CONSTANT HEAD =       32973.6690
               WELLS =           0.0000                 WELLS =           0.0000
            RECHARGE =    23901600.0000              RECHARGE =       55200.0000
      STREAM LEAKAGE =     6540908.9070        STREAM LEAKAGE =        7435.5355

            TOTAL IN =    92034188.5772              TOTAL IN =       95609.2045

          OUT:                                     OUT:
          ----                                     ----
             STORAGE =     2266340.7491               STORAGE =       15481.8664
       CONSTANT HEAD =           0.0000         CONSTANT HEAD =           0.0000
               WELLS =    27769396.1765                 WELLS =       30415.5489
            RECHARGE =           0.0000              RECHARGE =           0.0000
      STREAM LEAKAGE =    61998453.2680        STREAM LEAKAGE =       49711.7853

           TOTAL OUT =    92034190.1936             TOTAL OUT =       95609.2007

            IN - OUT =          -1.6163              IN - OUT =       3.8607E-03

 PERCENT DISCREPANCY =          -0.00     PERCENT DISCREPANCY =           0.00






         TIME SUMMARY AT END OF TIME STEP    1 IN STRESS PERIOD   10
                    SECONDS     MINUTES      HOURS       DAYS        YEARS
                    -----------------------------------------------------------
   TIME STEP LENGTH 7.86240E+06 1.31040E+05  2184.0      91.000     0.24914    
 STRESS PERIOD TIME 7.86240E+06 1.31040E+05  2184.0      91.000     0.24914    
         TOTAL TIME 7.88832E+07 1.31472E+06  21912.      913.00      2.4997    
1
1
                            STRESS PERIOD NO.   11, LENGTH =   91.00000    
                            -----------------------------------------------

                              NUMBER OF TIME STEPS =     1

                               MULTIPLIER FOR DELT =     1.500

                            INITIAL TIME STEP SIZE =   91.00000    

 WELL NO.  LAYER   ROW   COL   STRESS RATE         
 --------------------------------------------------
      1      1     10     17     -0.1009E+05
      2      1     11     19      -420.2    
      3      1     19     16      -9508.    
      4      1      6     15     -0.1040E+05

      4 WELLS

                 RECHARGE =   0.00000    

 REUSING STREAM SEGMENT DATA FROM LAST STRESS PERIOD
 
 SOLVING FOR HEAD 


     7 CALLS TO PCG ROUTINE FOR TIME STEP   1 IN STRESS PERIOD   11
    26 TOTAL ITERATIONS

 OUTPUT CONTROL FOR STRESS PERIOD   11   TIME STEP    1
    SAVE BUDGET
    SAVE HEAD FOR ALL LAYERS
    PRINT HEAD FOR ALL LAYERS
 UBDSV2 SAVING "STREAMFLOW OUT  " ON UNIT  50 AT TIME STEP  1, STRESS PERIOD  11



 STREAM LISTING     PERIOD     11   STEP        1

 LAYER ROW COL. STREAM  RCH.  FLOW INTO     FLOW TO   FLOW OUT OF   OVRLND.     DIRECT     STREAM       STREAM     STREAM     STREAM   STREAMBED  STREAMBED
                SEG.NO.  NO.  STRM. RCH.    AQUIFER    STRM. RCH.    RUNOFF     PRECIP       ET          HEAD       DEPTH      WIDTH   CONDCTNC.   GRADIENT

   1   13    1     1     1    1.0000E+05 -1.2386E+03   1.0124E+05  0.000E+00  0.000E+00  0.000E+00  4.84066E+01  1.452E-01  2.000E+01  2.000E+04 -6.193E-02
   1   13    2     1     2    1.0124E+05 -2.1360E+03   1.0337E+05  0.000E+00  0.000E+00  0.000E+00  4.79307E+01  1.466E-01  2.000E+01  2.000E+04 -1.068E-01
   1   14    3     1     3    1.0337E+05 -3.2240E+02   1.0370E+05  0.000E+00  0.000E+00  0.000E+00  4.74545E+01  1.477E-01  2.000E+01  2.000E+04 -1.612E-02
   1   15    4     1     4    1.0370E+05 -2.9742E+02   1.0399E+05  0.000E+00  0.000E+00  0.000E+00  4.69775E+01  1.480E-01  2.000E+01  2.000E+04 -1.487E-02
   1   16    5     1     5    1.0399E+05 -1.2389E+03   1.0523E+05  0.000E+00  0.000E+00  0.000E+00  4.65009E+01  1.486E-01  2.000E+01  2.000E+04 -6.194E-02
   1   16    6     1     6    1.0523E+05 -7.6261E+02   1.0600E+05  0.000E+00  0.000E+00  0.000E+00  4.60245E+01  1.495E-01  2.000E+01  2.000E+04 -3.813E-02
   1   16    7     1     7    1.0600E+05 -7.2471E+02   1.0672E+05  0.000E+00  0.000E+00  0.000E+00  4.55478E+01  1.501E-01  2.000E+01  2.000E+04 -3.624E-02
   1   16    8     1     8    1.0672E+05 -6.8636E+02   1.0741E+05  0.000E+00  0.000E+00  0.000E+00  4.50712E+01  1.507E-01  2.000E+01  2.000E+04 -3.432E-02
   1   16    9     1     9    1.0741E+05 -6.2967E+02   1.0804E+05  0.000E+00  0.000E+00  0.000E+00  4.45944E+01  1.513E-01  2.000E+01  2.000E+04 -3.148E-02
   1   16   10     1    10    1.0804E+05 -5.4662E+02   1.0858E+05  0.000E+00  0.000E+00  0.000E+00  4.41177E+01  1.517E-01  2.000E+01  2.000E+04 -2.733E-02
   1   16   11     1    11    1.0858E+05 -4.2671E+02   1.0901E+05  0.000E+00  0.000E+00  0.000E+00  4.36408E+01  1.522E-01  2.000E+01  2.000E+04 -2.134E-02
   1   16   12     1    12    1.0901E+05 -3.1834E+02   1.0933E+05  0.000E+00  0.000E+00  0.000E+00  4.31638E+01  1.525E-01  2.000E+01  2.000E+04 -1.592E-02
   1   15   13     1    13    1.0933E+05 -7.6469E+01   1.0940E+05  0.000E+00  0.000E+00  0.000E+00  4.26867E+01  1.526E-01  2.000E+01  2.000E+04 -3.823E-03
   1   14   14     1    14    1.0940E+05 -1.6015E+02   1.0956E+05  0.000E+00  0.000E+00  0.000E+00  4.22096E+01  1.527E-01  2.000E+01  2.000E+04 -8.007E-03
   1   13   15     1    15    1.0956E+05 -1.3998E+02   1.0970E+05  0.000E+00  0.000E+00  0.000E+00  4.17324E+01  1.529E-01  2.000E+01  2.000E+04 -6.999E-03
   1   12   16     1    16    1.0970E+05  5.6120E+02   1.0914E+05  0.000E+00  0.000E+00  0.000E+00  4.12550E+01  1.527E-01  2.000E+01  2.000E+04  2.806E-02
   1   12   17     1    17    1.0914E+05  1.1151E+03   1.0803E+05  0.000E+00  0.000E+00  0.000E+00  4.07770E+01  1.520E-01  2.000E+01  2.000E+04  5.576E-02
   1   12   18     1    18    1.0803E+05  5.3928E+02   1.0749E+05  0.000E+00  0.000E+00  0.000E+00  4.02990E+01  1.513E-01  2.000E+01  2.000E+04  2.696E-02
   1   12   19     1    19    1.0749E+05 -9.4682E+01   1.0758E+05  0.000E+00  0.000E+00  0.000E+00  3.98216E+01  1.511E-01  2.000E+01  2.000E+04 -4.734E-03
   1   13   20     1    20    1.0758E+05 -5.5945E+02   1.0814E+05  0.000E+00  0.000E+00  0.000E+00  3.93446E+01  1.514E-01  2.000E+01  2.000E+04 -2.797E-02
   1   14   21     1    21    1.0814E+05 -5.7162E+02   1.0872E+05  0.000E+00  0.000E+00  0.000E+00  3.88678E+01  1.518E-01  2.000E+01  2.000E+04 -2.858E-02
   1   14   22     1    22    1.0872E+05  4.9833E+03   1.0373E+05  0.000E+00  0.000E+00  0.000E+00  3.83886E+01  1.500E-01  2.000E+01  2.000E+04  2.492E-01
   1    9   30     2     1    5.0000E+04 -3.4756E+02   5.0348E+04  0.000E+00  0.000E+00  0.000E+00  4.02411E+01  1.161E-01  2.000E+01  2.000E+04 -1.738E-02
   1    9   29     2     2    5.0348E+04 -6.2953E+02   5.0977E+04  0.000E+00  0.000E+00  0.000E+00  3.99918E+01  1.168E-01  2.000E+01  2.000E+04 -3.148E-02
   1    9   28     2     3    5.0977E+04 -8.3725E+02   5.1814E+04  0.000E+00  0.000E+00  0.000E+00  3.97428E+01  1.178E-01  2.000E+01  2.000E+04 -4.186E-02
   1    9   27     2     4    5.1814E+04 -1.7457E+03   5.3560E+04  0.000E+00  0.000E+00  0.000E+00  3.94946E+01  1.196E-01  2.000E+01  2.000E+04 -8.729E-02
   1   10   26     2     5    5.3560E+04 -9.6251E+02   5.4523E+04  0.000E+00  0.000E+00  0.000E+00  3.92464E+01  1.214E-01  2.000E+01  2.000E+04 -4.813E-02
   1   11   25     2     6    5.4523E+04 -7.4027E+02   5.5263E+04  0.000E+00  0.000E+00  0.000E+00  3.89975E+01  1.225E-01  2.000E+01  2.000E+04 -3.701E-02
   1   12   24     2     7    5.5263E+04 -7.7356E+02   5.6036E+04  0.000E+00  0.000E+00  0.000E+00  3.87486E+01  1.236E-01  2.000E+01  2.000E+04 -3.868E-02
   1   13   23     2     8    5.6036E+04 -9.2261E+01   5.6129E+04  0.000E+00  0.000E+00  0.000E+00  3.84991E+01  1.241E-01  2.000E+01  2.000E+04 -4.613E-03
   1   14   22     2     9    5.6129E+04  2.1657E+03   5.3963E+04  0.000E+00  0.000E+00  0.000E+00  3.82477E+01  1.227E-01  2.000E+01  2.000E+04  1.083E-01
   1   14   22     3     1    1.5769E+05 -8.4724E+03   1.6617E+05  0.000E+00  0.000E+00  0.000E+00  3.77158E+01  1.603E-01  2.000E+01  2.000E+04 -4.236E-01
   1   15   23     3     2    1.6617E+05 -3.4674E+02   1.6651E+05  0.000E+00  0.000E+00  0.000E+00  3.68296E+01  1.629E-01  2.000E+01  2.000E+04 -1.734E-02
   1   15   24     3     3    1.6651E+05 -1.8206E+02   1.6670E+05  0.000E+00  0.000E+00  0.000E+00  3.59408E+01  1.630E-01  2.000E+01  2.000E+04 -9.103E-03
   1   15   25     3     4    1.6670E+05 -1.8541E+02   1.6688E+05  0.000E+00  0.000E+00  0.000E+00  3.50520E+01  1.632E-01  2.000E+01  2.000E+04 -9.271E-03
   1   15   26     3     5    1.6688E+05 -2.4250E+02   1.6712E+05  0.000E+00  0.000E+00  0.000E+00  3.41633E+01  1.633E-01  2.000E+01  2.000E+04 -1.213E-02
   1   16   27     3     6    1.6712E+05 -2.5373E+02   1.6738E+05  0.000E+00  0.000E+00  0.000E+00  3.32745E+01  1.634E-01  2.000E+01  2.000E+04 -1.269E-02
   1   17   28     3     7    1.6738E+05 -1.2332E+03   1.6861E+05  0.000E+00  0.000E+00  0.000E+00  3.23861E+01  1.639E-01  2.000E+01  2.000E+04 -6.166E-02
   1   18   29     3     8    1.6861E+05 -2.4673E+03   1.7108E+05  0.000E+00  0.000E+00  0.000E+00  3.14983E+01  1.649E-01  2.000E+01  2.000E+04 -1.234E-01
   1   18   30     3     9    1.7108E+05 -2.8722E+03   1.7395E+05  0.000E+00  0.000E+00  0.000E+00  3.06109E+01  1.665E-01  2.000E+01  2.000E+04 -1.436E-01



1
              HEAD IN LAYER   1 AT END OF TIME STEP   1 IN STRESS PERIOD   11
  ---------------------------------------------------------------------------

          1      2      3      4      5      6      7      8      9     10
         11     12     13     14     15     16     17     18     19     20
         21     22     23     24     25     26     27     28     29     30
 .........................................................................
   1  ****** ****** ****** ****** ****** ****** ****** ****** ****** ******
      ****** ****** ****** ****** ****** ****** ****** ****** ****** ******
      ****** ****** ****** ****** ****** ****** ****** ****** ****** ******
   2  ****** ****** ****** ****** ****** ****** ****** ****** ****** ******
      ****** ****** ****** ****** ****** ****** ****** ****** ****** ******
      ****** ****** ****** ****** ****** ****** ****** ****** ****** ******
   3  ****** ****** ****** ****** ****** ****** ****** ****** ****** ******
      ****** ****** ****** ****** ****** ****** ****** ****** ****** ******
      ****** ****** ****** ****** ****** ****** ****** ****** ****** ******
   4  ****** ****** ****** ****** ****** ****** ****** ****** ****** ******
      ****** ****** ****** ****** ****** ****** ****** ****** ****** ******
      ****** ****** ****** ****** ****** ****** ****** ****** ****** ******
   5  ****** ****** ****** ****** ****** ****** ****** ****** ****** ******
      ****** ****** ****** ****** ****** ****** ****** ****** ****** ******
      ****** ****** ****** ****** ****** ****** ****** ****** ****** ******
   6  ****** ****** ****** ****** ****** ****** ****** ****** ****** ******
      ****** ****** ****** ****** ****** ****** ****** ****** ****** ******
      ****** ****** ****** ****** ****** ****** ****** ****** ****** ******
   7  ****** ****** ****** ****** ****** ****** ****** ****** ****** ******
      ****** ****** ****** ****** ****** ****** ****** ****** ****** ******
      ****** ****** ****** ****** ****** ****** ****** ****** ****** ******
   8  ****** ****** ****** ****** ****** ****** ****** ****** ****** ******
      ****** ****** ****** ****** ****** ****** ****** ****** ****** ******
      ****** ****** ****** ****** ****** ****** ****** ****** ****** ******
   9  ****** ****** ****** ****** ****** ****** ****** ****** ****** ******
      ****** ****** ****** ****** ****** ****** ****** ****** ****** ******
      ****** ****** ****** ****** ****** ****** ****** ****** ****** ******
  10  ****** ****** ****** ****** ****** ****** ****** ****** ****** ******
      ****** ****** ****** ****** ****** ****** ****** ****** ****** ******
      ****** ****** ****** ****** ****** ****** ****** ****** ****** ******
  11  ****** ****** ****** ****** ****** ****** ****** ****** ****** ******
      ****** ****** ****** ****** ****** ****** ****** ****** ****** ******
      ****** ****** ****** ****** ****** ****** ****** ****** ****** ******
  12  ****** ****** ****** ****** ****** ****** ****** ****** ****** ******
      ****** ****** ****** ****** ****** ****** ****** ****** ****** ******
      ****** ****** ****** ****** ****** ****** ****** ****** ****** ******
  13  ****** ****** ****** ****** ****** ****** ****** ****** ****** ******
      ****** ****** ****** ****** ****** ****** ****** ****** ****** ******
      ****** ****** ****** ****** ****** ****** ****** ****** ****** ******
  14  ****** ****** ****** ****** ****** ****** ****** ****** ****** ******
      ****** ****** ****** ****** ****** ****** ****** ****** ****** ******
      ****** ****** ****** ****** ****** ****** ****** ****** ****** ******
  15  ****** ****** ****** ****** ****** ****** ****** ****** ****** ******
      ****** ****** ****** ****** ****** ****** ****** ****** ****** ******
      ****** ****** ****** ****** ****** ****** ****** ****** ****** ******
  16  ****** ****** ****** ****** ****** ****** ****** ****** ****** ******
      ****** ****** ****** ****** ****** ****** ****** ****** ****** ******
      ****** ****** ****** ****** ****** ****** ****** ****** ****** ******
  17  ****** ****** ****** ****** ****** ****** ****** ****** ****** ******
      ****** ****** ****** ****** ****** ****** ****** ****** ****** ******
      ****** ****** ****** ****** ****** ****** ****** ****** ****** ******
  18  ****** ****** ****** ****** ****** ****** ****** ****** ****** ******
      ****** ****** ****** ****** ****** ****** ****** ****** ****** ******
      ****** ****** ****** ****** ****** ****** ****** ****** ****** ******
  19  ****** ****** ****** ****** ****** ****** ****** ****** ****** ******
      ****** ****** ****** ****** ****** ****** ****** ****** ****** ******
      ****** ****** ****** ****** ****** ****** ****** ****** ****** ******
  20  ****** ****** ****** ****** ****** ****** ****** ****** ****** ******
      ****** ****** ****** ****** ****** ****** ****** ****** ****** ******
      ****** ****** ****** ****** ****** ****** ****** ****** ****** ******
  21  ****** ****** ****** ****** ****** ****** ****** ****** ****** ******
      ****** ****** ****** ****** ****** ****** ****** ****** ****** ******
      ****** ****** ****** ****** ****** ****** ****** ****** ****** ******
  22  ****** ****** ****** ****** ****** ****** ****** ****** ****** ******
      ****** ****** ****** ****** ****** ****** ****** ****** ****** ******
      ****** ****** ****** ****** ****** ****** ****** ****** ****** ******
  23  ****** ****** ****** ****** ****** ****** ****** ****** ****** ******
      ****** ****** ****** ****** ****** ****** ****** ****** ****** ******
      ****** ****** ****** ****** ****** ****** ****** ****** ****** ******
  24  ****** ****** ****** ****** ****** ****** ****** ****** ****** ******
      ****** ****** ****** ****** ****** ****** ****** ****** ****** ******
      ****** ****** ****** ****** ****** ****** ****** ****** ****** ******
  25  ****** ****** ****** ****** ****** ****** ****** ****** ****** ******
      ****** ****** ****** ****** ****** ****** ****** ****** ****** ******
      ****** ****** ****** ****** ****** ****** ****** ****** ****** ******

 HEAD WILL BE SAVED ON UNIT   51 AT END OF TIME STEP    1, STRESS PERIOD   11
1
  VOLUMETRIC BUDGET FOR ENTIRE MODEL AT END OF TIME STEP    1, STRESS PERIOD  11
  ------------------------------------------------------------------------------

     CUMULATIVE VOLUMES      L**3       RATES FOR THIS TIME STEP      L**3/T
     ------------------                 ------------------------

           IN:                                      IN:
           ---                                      ---
             STORAGE =    36818485.0699               STORAGE =       18089.5148
       CONSTANT HEAD =    29720489.2067         CONSTANT HEAD =       36276.3600
               WELLS =           0.0000                 WELLS =           0.0000
            RECHARGE =    23901600.0000              RECHARGE =           0.0000
      STREAM LEAKAGE =     7393084.1286        STREAM LEAKAGE =        9364.5629

            TOTAL IN =    97833658.4052              TOTAL IN =       63730.4377

          OUT:                                     OUT:
          ----                                     ----
             STORAGE =     2266340.7491               STORAGE =           0.0000
       CONSTANT HEAD =           0.0000         CONSTANT HEAD =           0.0000
               WELLS =    30537211.1294                 WELLS =       30415.5489
            RECHARGE =           0.0000              RECHARGE =           0.0000
      STREAM LEAKAGE =    65030108.5983        STREAM LEAKAGE =       33314.8937

           TOTAL OUT =    97833660.4768             TOTAL OUT =       63730.4427

            IN - OUT =          -2.0717              IN - OUT =      -5.0036E-03

 PERCENT DISCREPANCY =          -0.00     PERCENT DISCREPANCY =          -0.00






         TIME SUMMARY AT END OF TIME STEP    1 IN STRESS PERIOD   11
                    SECONDS     MINUTES      HOURS       DAYS        YEARS
                    -----------------------------------------------------------
   TIME STEP LENGTH 7.86240E+06 1.31040E+05  2184.0      91.000     0.24914    
 STRESS PERIOD TIME 7.86240E+06 1.31040E+05  2184.0      91.000     0.24914    
         TOTAL TIME 8.67456E+07 1.44576E+06  24096.      1004.0      2.7488    
1
1
                            STRESS PERIOD NO.   12, LENGTH =   91.00000    
                            -----------------------------------------------

                              NUMBER OF TIME STEPS =     1

                               MULTIPLIER FOR DELT =     1.500

                            INITIAL TIME STEP SIZE =   91.00000    

 WELL NO.  LAYER   ROW   COL   STRESS RATE         
 --------------------------------------------------
      1      1     10     17     -0.1009E+05
      2      1     11     19      -420.2    
      3      1     19     16      -9508.    
      4      1      6     15     -0.1040E+05

      4 WELLS

                 RECHARGE =  1.000000E-03

 REUSING STREAM SEGMENT DATA FROM LAST STRESS PERIOD
 
 SOLVING FOR HEAD 


     7 CALLS TO PCG ROUTINE FOR TIME STEP   1 IN STRESS PERIOD   12
    24 TOTAL ITERATIONS

 OUTPUT CONTROL FOR STRESS PERIOD   12   TIME STEP    1
    SAVE BUDGET
    SAVE HEAD FOR ALL LAYERS
    PRINT HEAD FOR ALL LAYERS
 UBDSV2 SAVING "STREAMFLOW OUT  " ON UNIT  50 AT TIME STEP  1, STRESS PERIOD  12



 STREAM LISTING     PERIOD     12   STEP        1

 LAYER ROW COL. STREAM  RCH.  FLOW INTO     FLOW TO   FLOW OUT OF   OVRLND.     DIRECT     STREAM       STREAM     STREAM     STREAM   STREAMBED  STREAMBED
                SEG.NO.  NO.  STRM. RCH.    AQUIFER    STRM. RCH.    RUNOFF     PRECIP       ET          HEAD       DEPTH      WIDTH   CONDCTNC.   GRADIENT

   1   13    1     1     1    1.0000E+05 -1.3792E+03   1.0138E+05  0.000E+00  0.000E+00  0.000E+00  4.84066E+01  1.452E-01  2.000E+01  2.000E+04 -6.896E-02
   1   13    2     1     2    1.0138E+05 -2.2867E+03   1.0367E+05  0.000E+00  0.000E+00  0.000E+00  4.79309E+01  1.468E-01  2.000E+01  2.000E+04 -1.143E-01
   1   14    3     1     3    1.0367E+05 -4.0028E+02   1.0407E+05  0.000E+00  0.000E+00  0.000E+00  4.74548E+01  1.480E-01  2.000E+01  2.000E+04 -2.001E-02
   1   15    4     1     4    1.0407E+05 -3.7923E+02   1.0445E+05  0.000E+00  0.000E+00  0.000E+00  4.69779E+01  1.483E-01  2.000E+01  2.000E+04 -1.896E-02
   1   16    5     1     5    1.0445E+05 -1.4482E+03   1.0589E+05  0.000E+00  0.000E+00  0.000E+00  4.65014E+01  1.491E-01  2.000E+01  2.000E+04 -7.241E-02
   1   16    6     1     6    1.0589E+05 -8.9254E+02   1.0679E+05  0.000E+00  0.000E+00  0.000E+00  4.60251E+01  1.501E-01  2.000E+01  2.000E+04 -4.463E-02
   1   16    7     1     7    1.0679E+05 -8.4953E+02   1.0764E+05  0.000E+00  0.000E+00  0.000E+00  4.55486E+01  1.508E-01  2.000E+01  2.000E+04 -4.248E-02
   1   16    8     1     8    1.0764E+05 -8.1014E+02   1.0845E+05  0.000E+00  0.000E+00  0.000E+00  4.50720E+01  1.515E-01  2.000E+01  2.000E+04 -4.051E-02
   1   16    9     1     9    1.0845E+05 -7.5394E+02   1.0920E+05  0.000E+00  0.000E+00  0.000E+00  4.45954E+01  1.522E-01  2.000E+01  2.000E+04 -3.770E-02
   1   16   10     1    10    1.0920E+05 -6.7231E+02   1.0987E+05  0.000E+00  0.000E+00  0.000E+00  4.41187E+01  1.528E-01  2.000E+01  2.000E+04 -3.362E-02
   1   16   11     1    11    1.0987E+05 -5.5475E+02   1.1043E+05  0.000E+00  0.000E+00  0.000E+00  4.36419E+01  1.533E-01  2.000E+01  2.000E+04 -2.774E-02
   1   16   12     1    12    1.1043E+05 -5.1943E+02   1.1095E+05  0.000E+00  0.000E+00  0.000E+00  4.31651E+01  1.537E-01  2.000E+01  2.000E+04 -2.597E-02
   1   15   13     1    13    1.1095E+05 -2.9206E+02   1.1124E+05  0.000E+00  0.000E+00  0.000E+00  4.26882E+01  1.541E-01  2.000E+01  2.000E+04 -1.460E-02
   1   14   14     1    14    1.1124E+05 -3.7581E+02   1.1161E+05  0.000E+00  0.000E+00  0.000E+00  4.22112E+01  1.544E-01  2.000E+01  2.000E+04 -1.879E-02
   1   13   15     1    15    1.1161E+05 -3.4794E+02   1.1196E+05  0.000E+00  0.000E+00  0.000E+00  4.17342E+01  1.547E-01  2.000E+01  2.000E+04 -1.740E-02
   1   12   16     1    16    1.1196E+05  3.8041E+02   1.1158E+05  0.000E+00  0.000E+00  0.000E+00  4.12569E+01  1.546E-01  2.000E+01  2.000E+04  1.902E-02
   1   12   17     1    17    1.1158E+05  9.6299E+02   1.1062E+05  0.000E+00  0.000E+00  0.000E+00  4.07791E+01  1.541E-01  2.000E+01  2.000E+04  4.815E-02
   1   12   18     1    18    1.1062E+05  3.8475E+02   1.1023E+05  0.000E+00  0.000E+00  0.000E+00  4.03012E+01  1.535E-01  2.000E+01  2.000E+04  1.924E-02
   1   12   19     1    19    1.1023E+05 -2.8583E+02   1.1052E+05  0.000E+00  0.000E+00  0.000E+00  3.98239E+01  1.535E-01  2.000E+01  2.000E+04 -1.429E-02
   1   13   20     1    20    1.1052E+05 -7.6923E+02   1.1129E+05  0.000E+00  0.000E+00  0.000E+00  3.93471E+01  1.539E-01  2.000E+01  2.000E+04 -3.846E-02
   1   14   21     1    21    1.1129E+05 -7.6540E+02   1.1205E+05  0.000E+00  0.000E+00  0.000E+00  3.88705E+01  1.546E-01  2.000E+01  2.000E+04 -3.827E-02
   1   14   22     1    22    1.1205E+05  4.9313E+03   1.0712E+05  0.000E+00  0.000E+00  0.000E+00  3.83915E+01  1.528E-01  2.000E+01  2.000E+04  2.466E-01
   1    9   30     2     1    5.0000E+04 -5.2371E+02   5.0524E+04  0.000E+00  0.000E+00  0.000E+00  4.02412E+01  1.162E-01  2.000E+01  2.000E+04 -2.619E-02
   1    9   29     2     2    5.0524E+04 -8.0361E+02   5.1327E+04  0.000E+00  0.000E+00  0.000E+00  3.99921E+01  1.171E-01  2.000E+01  2.000E+04 -4.018E-02
   1    9   28     2     3    5.1327E+04 -1.0078E+03   5.2335E+04  0.000E+00  0.000E+00  0.000E+00  3.97434E+01  1.184E-01  2.000E+01  2.000E+04 -5.039E-02
   1    9   27     2     4    5.2335E+04 -1.9541E+03   5.4289E+04  0.000E+00  0.000E+00  0.000E+00  3.94954E+01  1.204E-01  2.000E+01  2.000E+04 -9.771E-02
   1   10   26     2     5    5.4289E+04 -1.1917E+03   5.5481E+04  0.000E+00  0.000E+00  0.000E+00  3.92475E+01  1.225E-01  2.000E+01  2.000E+04 -5.958E-02
   1   11   25     2     6    5.5481E+04 -9.6559E+02   5.6446E+04  0.000E+00  0.000E+00  0.000E+00  3.89990E+01  1.240E-01  2.000E+01  2.000E+04 -4.828E-02
   1   12   24     2     7    5.6446E+04 -9.7917E+02   5.7426E+04  0.000E+00  0.000E+00  0.000E+00  3.87503E+01  1.253E-01  2.000E+01  2.000E+04 -4.896E-02
   1   13   23     2     8    5.7426E+04 -1.6981E+02   5.7595E+04  0.000E+00  0.000E+00  0.000E+00  3.85010E+01  1.260E-01  2.000E+01  2.000E+04 -8.491E-03
   1   14   22     2     9    5.7595E+04  2.0970E+03   5.5498E+04  0.000E+00  0.000E+00  0.000E+00  3.82497E+01  1.247E-01  2.000E+01  2.000E+04  1.048E-01
   1   14   22     3     1    1.6262E+05 -8.5226E+03   1.7114E+05  0.000E+00  0.000E+00  0.000E+00  3.77188E+01  1.632E-01  2.000E+01  2.000E+04 -4.261E-01
   1   15   23     3     2    1.7114E+05 -4.1875E+02   1.7156E+05  0.000E+00  0.000E+00  0.000E+00  3.68325E+01  1.658E-01  2.000E+01  2.000E+04 -2.094E-02
   1   15   24     3     3    1.7156E+05 -2.4714E+02   1.7181E+05  0.000E+00  0.000E+00  0.000E+00  3.59438E+01  1.660E-01  2.000E+01  2.000E+04 -1.236E-02
   1   15   25     3     4    1.7181E+05 -2.5176E+02   1.7206E+05  0.000E+00  0.000E+00  0.000E+00  3.50550E+01  1.662E-01  2.000E+01  2.000E+04 -1.259E-02
   1   15   26     3     5    1.7206E+05 -3.1998E+02   1.7238E+05  0.000E+00  0.000E+00  0.000E+00  3.41663E+01  1.663E-01  2.000E+01  2.000E+04 -1.600E-02
   1   16   27     3     6    1.7238E+05 -3.4050E+02   1.7272E+05  0.000E+00  0.000E+00  0.000E+00  3.32776E+01  1.665E-01  2.000E+01  2.000E+04 -1.703E-02
   1   17   28     3     7    1.7272E+05 -1.4539E+03   1.7418E+05  0.000E+00  0.000E+00  0.000E+00  3.23893E+01  1.670E-01  2.000E+01  2.000E+04 -7.269E-02
   1   18   29     3     8    1.7418E+05 -2.6679E+03   1.7684E+05  0.000E+00  0.000E+00  0.000E+00  3.15016E+01  1.682E-01  2.000E+01  2.000E+04 -1.334E-01
   1   18   30     3     9    1.7684E+05 -3.0404E+03   1.7988E+05  0.000E+00  0.000E+00  0.000E+00  3.06143E+01  1.699E-01  2.000E+01  2.000E+04 -1.520E-01



1
              HEAD IN LAYER   1 AT END OF TIME STEP   1 IN STRESS PERIOD   12
  ---------------------------------------------------------------------------

          1      2      3      4      5      6      7      8      9     10
         11     12     13     14     15     16     17     18     19     20
         21     22     23     24     25     26     27     28     29     30
 .........................................................................
   1  ****** ****** ****** ****** ****** ****** ****** ****** ****** ******
      ****** ****** ****** ****** ****** ****** ****** ****** ****** ******
      ****** ****** ****** ****** ****** ****** ****** ****** ****** ******
   2  ****** ****** ****** ****** ****** ****** ****** ****** ****** ******
      ****** ****** ****** ****** ****** ****** ****** ****** ****** ******
      ****** ****** ****** ****** ****** ****** ****** ****** ****** ******
   3  ****** ****** ****** ****** ****** ****** ****** ****** ****** ******
      ****** ****** ****** ****** ****** ****** ****** ****** ****** ******
      ****** ****** ****** ****** ****** ****** ****** ****** ****** ******
   4  ****** ****** ****** ****** ****** ****** ****** ****** ****** ******
      ****** ****** ****** ****** ****** ****** ****** ****** ****** ******
      ****** ****** ****** ****** ****** ****** ****** ****** ****** ******
   5  ****** ****** ****** ****** ****** ****** ****** ****** ****** ******
      ****** ****** ****** ****** ****** ****** ****** ****** ****** ******
      ****** ****** ****** ****** ****** ****** ****** ****** ****** ******
   6  ****** ****** ****** ****** ****** ****** ****** ****** ****** ******
      ****** ****** ****** ****** ****** ****** ****** ****** ****** ******
      ****** ****** ****** ****** ****** ****** ****** ****** ****** ******
   7  ****** ****** ****** ****** ****** ****** ****** ****** ****** ******
      ****** ****** ****** ****** ****** ****** ****** ****** ****** ******
      ****** ****** ****** ****** ****** ****** ****** ****** ****** ******
   8  ****** ****** ****** ****** ****** ****** ****** ****** ****** ******
      ****** ****** ****** ****** ****** ****** ****** ****** ****** ******
      ****** ****** ****** ****** ****** ****** ****** ****** ****** ******
   9  ****** ****** ****** ****** ****** ****** ****** ****** ****** ******
      ****** ****** ****** ****** ****** ****** ****** ****** ****** ******
      ****** ****** ****** ****** ****** ****** ****** ****** ****** ******
  10  ****** ****** ****** ****** ****** ****** ****** ****** ****** ******
      ****** ****** ****** ****** ****** ****** ****** ****** ****** ******
      ****** ****** ****** ****** ****** ****** ****** ****** ****** ******
  11  ****** ****** ****** ****** ****** ****** ****** ****** ****** ******
      ****** ****** ****** ****** ****** ****** ****** ****** ****** ******
      ****** ****** ****** ****** ****** ****** ****** ****** ****** ******
  12  ****** ****** ****** ****** ****** ****** ****** ****** ****** ******
      ****** ****** ****** ****** ****** ****** ****** ****** ****** ******
      ****** ****** ****** ****** ****** ****** ****** ****** ****** ******
  13  ****** ****** ****** ****** ****** ****** ****** ****** ****** ******
      ****** ****** ****** ****** ****** ****** ****** ****** ****** ******
      ****** ****** ****** ****** ****** ****** ****** ****** ****** ******
  14  ****** ****** ****** ****** ****** ****** ****** ****** ****** ******
      ****** ****** ****** ****** ****** ****** ****** ****** ****** ******
      ****** ****** ****** ****** ****** ****** ****** ****** ****** ******
  15  ****** ****** ****** ****** ****** ****** ****** ****** ****** ******
      ****** ****** ****** ****** ****** ****** ****** ****** ****** ******
      ****** ****** ****** ****** ****** ****** ****** ****** ****** ******
  16  ****** ****** ****** ****** ****** ****** ****** ****** ****** ******
      ****** ****** ****** ****** ****** ****** ****** ****** ****** ******
      ****** ****** ****** ****** ****** ****** ****** ****** ****** ******
  17  ****** ****** ****** ****** ****** ****** ****** ****** ****** ******
      ****** ****** ****** ****** ****** ****** ****** ****** ****** ******
      ****** ****** ****** ****** ****** ****** ****** ****** ****** ******
  18  ****** ****** ****** ****** ****** ****** ****** ****** ****** ******
      ****** ****** ****** ****** ****** ****** ****** ****** ****** ******
      ****** ****** ****** ****** ****** ****** ****** ****** ****** ******
  19  ****** ****** ****** ****** ****** ****** ****** ****** ****** ******
      ****** ****** ****** ****** ****** ****** ****** ****** ****** ******
      ****** ****** ****** ****** ****** ****** ****** ****** ****** ******
  20  ****** ****** ****** ****** ****** ****** ****** ****** ****** ******
      ****** ****** ****** ****** ****** ****** ****** ****** ****** ******
      ****** ****** ****** ****** ****** ****** ****** ****** ****** ******
  21  ****** ****** ****** ****** ****** ****** ****** ****** ****** ******
      ****** ****** ****** ****** ****** ****** ****** ****** ****** ******
      ****** ****** ****** ****** ****** ****** ****** ****** ****** ******
  22  ****** ****** ****** ****** ****** ****** ****** ****** ****** ******
      ****** ****** ****** ****** ****** ****** ****** ****** ****** ******
      ****** ****** ****** ****** ****** ****** ****** ****** ****** ******
  23  ****** ****** ****** ****** ****** ****** ****** ****** ****** ******
      ****** ****** ****** ****** ****** ****** ****** ****** ****** ******
      ****** ****** ****** ****** ****** ****** ****** ****** ****** ******
  24  ****** ****** ****** ****** ****** ****** ****** ****** ****** ******
      ****** ****** ****** ****** ****** ****** ****** ****** ****** ******
      ****** ****** ****** ****** ****** ****** ****** ****** ****** ******
  25  ****** ****** ****** ****** ****** ****** ****** ****** ****** ******
      ****** ****** ****** ****** ****** ****** ****** ****** ****** ******
      ****** ****** ****** ****** ****** ****** ****** ****** ****** ******

 HEAD WILL BE SAVED ON UNIT   51 AT END OF TIME STEP    1, STRESS PERIOD   12
1
  VOLUMETRIC BUDGET FOR ENTIRE MODEL AT END OF TIME STEP    1, STRESS PERIOD  12
  ------------------------------------------------------------------------------

     CUMULATIVE VOLUMES      L**3       RATES FOR THIS TIME STEP      L**3/T
     ------------------                 ------------------------

           IN:                                      IN:
           ---                                      ---
             STORAGE =    36821734.2048               STORAGE =          35.7048
       CONSTANT HEAD =    32959386.4334         CONSTANT HEAD =       35592.2772
               WELLS =           0.0000                 WELLS =           0.0000
            RECHARGE =    26413200.0000              RECHARGE =       27600.0000
      STREAM LEAKAGE =     8189918.0308        STREAM LEAKAGE =        8756.4165

            TOTAL IN =   104384238.6690              TOTAL IN =       71984.3985

          OUT:                                     OUT:
          ----                                     ----
             STORAGE =     2532777.0805               STORAGE =        2927.8718
       CONSTANT HEAD =           0.0000         CONSTANT HEAD =           0.0000
               WELLS =    33305026.0824                 WELLS =       30415.5489
            RECHARGE =           0.0000              RECHARGE =           0.0000
      STREAM LEAKAGE =    68546437.4909        STREAM LEAKAGE =       38640.9768

           TOTAL OUT =   104384240.6539             TOTAL OUT =       71984.3975

            IN - OUT =          -1.9849              IN - OUT =       9.5356E-04

 PERCENT DISCREPANCY =          -0.00     PERCENT DISCREPANCY =           0.00






         TIME SUMMARY AT END OF TIME STEP    1 IN STRESS PERIOD   12
                    SECONDS     MINUTES      HOURS       DAYS        YEARS
                    -----------------------------------------------------------
   TIME STEP LENGTH 7.86240E+06 1.31040E+05  2184.0      91.000     0.24914    
 STRESS PERIOD TIME 7.86240E+06 1.31040E+05  2184.0      91.000     0.24914    
         TOTAL TIME 9.46080E+07 1.57680E+06  26280.      1095.0      2.9979    
1

 Run end date and time (yyyy/mm/dd hh:mm:ss): 2019/03/27 18:04:33
 Elapsed run time:  0.073 Seconds

