                                  MODFLOW-2005     
      U.S. GEOLOGICAL SURVEY MODULAR FINITE-DIFFERENCE GROUND-WATER FLOW MODEL
                            VERSION 1.11.00 8/8/2013

 LIST FILE: supply2.lst
                         UNIT   10

 OPENING ..\data\supply.dis
 FILE TYPE:DIS   UNIT   11   STATUS:OLD    
 FORMAT:FORMATTED              ACCESS:SEQUENTIAL          

 OPENING ..\data\supply.ba6
 FILE TYPE:BAS6   UNIT   12   STATUS:OLD    
 FORMAT:FORMATTED              ACCESS:SEQUENTIAL          

 OPENING ..\data\supply.bc6
 FILE TYPE:BCF6   UNIT   13   STATUS:OLD    
 FORMAT:FORMATTED              ACCESS:SEQUENTIAL          

 OPENING ..\data\supply.rch
 FILE TYPE:RCH   UNIT   15   STATUS:OLD    
 FORMAT:FORMATTED              ACCESS:SEQUENTIAL          

 OPENING ..\data\supply2.sfr
 FILE TYPE:SFR   UNIT   16   STATUS:OLD    
 FORMAT:FORMATTED              ACCESS:SEQUENTIAL          

 OPENING ..\data\supply.oc
 FILE TYPE:OC   UNIT   17   STATUS:OLD    
 FORMAT:FORMATTED              ACCESS:SEQUENTIAL          

 OPENING ..\data\supply.pcg
 FILE TYPE:PCG   UNIT   18   STATUS:OLD    
 FORMAT:FORMATTED              ACCESS:SEQUENTIAL          

 OPENING supply2.wel
 FILE TYPE:WEL   UNIT   19   STATUS:OLD    
 FORMAT:FORMATTED              ACCESS:SEQUENTIAL          

 OPENING supply2sf.cbc
 FILE TYPE:DATA(BINARY)   UNIT   50   STATUS:UNKNOWN
 FORMAT:BINARY                 ACCESS:SEQUENTIAL          

 OPENING supply2hd.bhd
 FILE TYPE:DATA(BINARY)   UNIT   51   STATUS:UNKNOWN
 FORMAT:BINARY                 ACCESS:SEQUENTIAL          

 BAS -- BASIC PACKAGE, VERSION 7, 5/2/2005 INPUT READ FROM UNIT   12
 
 MODFLOW was compiled using uniform precision
 Precision of REAL and DOUBLE PRECISION variables:          15

 DISCRETIZATION INPUT DATA READ FROM UNIT   11
    1 LAYERS        25 ROWS        30 COLUMNS
   12 STRESS PERIOD(S) IN SIMULATION
 MODEL TIME UNIT IS DAYS
 MODEL LENGTH UNIT IS UNDEFINED
  Confining bed flag for each layer:
   0

                     DELR =   200.000    

                     DELC =   200.000    

 TOP ELEVATION OF LAYER 1 =  100.0000    

   MODEL LAYER BOTTOM EL. =   0.00000     FOR LAYER   1


 STRESS PERIOD     LENGTH       TIME STEPS     MULTIPLIER FOR DELT    SS FLAG
 ----------------------------------------------------------------------------
        1         92.00000          1                    1.500         TR
        2         91.00000          1                    1.500         TR
        3         91.00000          1                    1.500         TR
        4         91.00000          1                    1.500         TR
        5         92.00000          1                    1.500         TR
        6         91.00000          1                    1.500         TR
        7         91.00000          1                    1.500         TR
        8         91.00000          1                    1.500         TR
        9         92.00000          1                    1.500         TR
       10         91.00000          1                    1.500         TR
       11         91.00000          1                    1.500         TR
       12         91.00000          1                    1.500         TR

 TRANSIENT SIMULATION



 
 #MODOFC transient water supply sample problem                                   
 #                                                                               
 THE FREE FORMAT OPTION HAS BEEN SELECTED



                     BOUNDARY ARRAY FOR LAYER   1
 READING ON UNIT   12 WITH FORMAT: (20I4)              

 AQUIFER HEAD WILL BE SET TO   0.0000     AT ALL NO-FLOW NODES (IBOUND=0).



                       INITIAL HEAD FOR LAYER   1
 READING ON UNIT   12 WITH FORMAT: (10F13.0)           

 OUTPUT CONTROL IS SPECIFIED ONLY AT TIME STEPS FOR WHICH OUTPUT IS DESIRED
 COMPACT CELL-BY-CELL BUDGET FILES WILL BE WRITTEN
 HEAD PRINT FORMAT CODE IS  18    DRAWDOWN PRINT FORMAT CODE IS   0
 HEADS WILL BE SAVED ON UNIT   51    DRAWDOWNS WILL BE SAVED ON UNIT    0

 BCF -- BLOCK-CENTERED FLOW PACKAGE, VERSION 7, 5/2/2005
         INPUT READ FROM UNIT 13
 TRANSIENT SIMULATION
 HEAD AT CELLS THAT CONVERT TO DRY=   0.0000    
 WETTING CAPABILITY IS NOT ACTIVE
      LAYER  LAYER-TYPE CODE     INTERBLOCK T
      --------------------------------------------
         1            0          0 -- HARMONIC    

 COLUMN TO ROW ANISOTROPY =  1.000000    

     PRIMARY STORAGE COEF =  5.000000E-02 FOR LAYER   1

     TRANSMIS. ALONG ROWS =   500.000     FOR LAYER   1

 WEL -- WELL PACKAGE, VERSION 7, 5/2/2005 INPUT READ FROM UNIT   19
 # Well package input file written by MMProc
 No named parameters
 MAXIMUM OF      4 ACTIVE WELLS AT ONE TIME


     0 Well parameters

 RCH -- RECHARGE PACKAGE, VERSION 7, 5/2/2005 INPUT READ FROM UNIT   15
 No named parameters
 OPTION 1 -- RECHARGE TO TOP LAYER


     0 Recharge parameters

 SFR7 -- STREAMFLOW ROUTING PACKAGE, VERSION 1.0.7, 2013-01-15
         INPUT READ FROM UNIT  16
 #  Supply2 test problem for GWM-VI
 #  The eighth entry in the first data line is ISTCB2 -
 #    Setting this to a negative number indicates that
 #    streamflows out of the reach will be saved to a
 #    binary file.  The absolute value of ISTCB2 is the
 #    unit to which unformatted flows will be written.
 #
 No named parameters
 Segment information will not be 
 read by reach
 No named parameters
 No specifed inflow files


 NUMBER OF STREAM REACHES IS   40

 NUMBER OF STREAM SEGMENTS IS    3

 NUMBER OF STREAM PARAMETERS IS    0

 NUMBER OF STREAM SEGMENTS DEFINED USING PARAMETERS IS              0

 MAXIMUM ERROR FOR STREAM LEAKAGE RATES IS  1.00E-04

 CONSTANT FOR MANNINGS EQUATION IS  1.2839E+05





   STREAM NETWORK DESCRIPTION: 

   LAYER    ROW    COL   SEGMENT   REACH     LENGTH
                          NUMBER   NUMBER    IN CELL        
   --------------------------------------------------
      1     13      1       1        1    2.0000E+02
      1     13      2       1        2    2.0000E+02
      1     14      3       1        3    2.0000E+02
      1     15      4       1        4    2.0000E+02
      1     16      5       1        5    2.0000E+02
      1     16      6       1        6    2.0000E+02
      1     16      7       1        7    2.0000E+02
      1     16      8       1        8    2.0000E+02
      1     16      9       1        9    2.0000E+02
      1     16     10       1       10    2.0000E+02
      1     16     11       1       11    2.0000E+02
      1     16     12       1       12    2.0000E+02
      1     15     13       1       13    2.0000E+02
      1     14     14       1       14    2.0000E+02
      1     13     15       1       15    2.0000E+02
      1     12     16       1       16    2.0000E+02
      1     12     17       1       17    2.0000E+02
      1     12     18       1       18    2.0000E+02
      1     12     19       1       19    2.0000E+02
      1     13     20       1       20    2.0000E+02
      1     14     21       1       21    2.0000E+02
      1     14     22       1       22    2.0000E+02
      1      9     30       2        1    2.0000E+02
      1      9     29       2        2    2.0000E+02
      1      9     28       2        3    2.0000E+02
      1      9     27       2        4    2.0000E+02
      1     10     26       2        5    2.0000E+02
      1     11     25       2        6    2.0000E+02
      1     12     24       2        7    2.0000E+02
      1     13     23       2        8    2.0000E+02
      1     14     22       2        9    2.0000E+02
      1     14     22       3        1    2.0000E+02
      1     15     23       3        2    2.0000E+02
      1     15     24       3        3    2.0000E+02
      1     15     25       3        4    2.0000E+02
      1     15     26       3        5    2.0000E+02
      1     16     27       3        6    2.0000E+02
      1     17     28       3        7    2.0000E+02
      1     18     29       3        8    2.0000E+02
      1     18     30       3        9    2.0000E+02




 PCG -- CONJUGATE-GRADIENT SOLUTION PACKAGE, VERSION 7, 5/2/2005
 MAXIMUM OF    500 CALLS OF SOLUTION ROUTINE
 MAXIMUM OF      5 INTERNAL ITERATIONS PER CALL TO SOLUTION ROUTINE
 MATRIX PRECONDITIONING TYPE :    1



                                    SOLUTION BY THE CONJUGATE-GRADIENT METHOD
                                   -------------------------------------------
                    MAXIMUM NUMBER OF CALLS TO PCG ROUTINE =      500
                        MAXIMUM ITERATIONS PER CALL TO PCG =        5
                               MATRIX PRECONDITIONING TYPE =        1
        RELAXATION FACTOR (ONLY USED WITH PRECOND. TYPE 1) =    0.10000E+01
 PARAMETER OF POLYNOMIAL PRECOND. = 2 (2) OR IS CALCULATED :        0
                         HEAD CHANGE CRITERION FOR CLOSURE =    0.10000E-05
                     RESIDUAL CHANGE CRITERION FOR CLOSURE =    0.10000E+01
            PCG HEAD AND RESIDUAL CHANGE PRINTOUT INTERVAL =        1
     PRINTING FROM SOLVER IS LIMITED(1) OR SUPPRESSED (>1) =        1
                            STEADY-STATE DAMPING PARAMETER =    0.10000E+01
                               TRANSIENT DAMPING PARAMETER =    0.10000E+01
1
                            STRESS PERIOD NO.    1, LENGTH =   92.00000    
                            -----------------------------------------------

                              NUMBER OF TIME STEPS =     1

                               MULTIPLIER FOR DELT =     1.500

                            INITIAL TIME STEP SIZE =   92.00000    

 WELL NO.  LAYER   ROW   COL   STRESS RATE         
 --------------------------------------------------
      1      1     21     23     -0.1821E+05
      2      1     20     24     -0.1241E+05
      3      1     19     20     -0.2382E+05
      4      1     19     24     -0.2191E+05

      4 WELLS

                 RECHARGE =  5.000000E-04



 CLASSIFICATION & COUNT OF STREAM SEGMENTS BASED ON SOURCE OF INFLOW:

                HEADWATER     DIVERSION     RECEIVES TRIBUTARY FLOW
                ---------     ---------     -----------------------
                     2              0               1



                    INPUT DATA FOR EACH STREAM SEGMENT
 ---------------------------------------------------------------------------------------------

 SEGMENT    SEG.     INFLOW   OVERLAND   STREAM    STREAM   ICALC  OUTFLOW  DIVERSION PRIORITY
    NO.    LENGTH     RATE     RUNOFF      ET       PPT.    METH.  TO SEG.  FROM SEG.    NO.

      1  4.400E+03 1.000E+05 0.000E+00 0.000E+00 0.000E+00    1        3        0        0
      2  1.800E+03 5.000E+04 0.000E+00 0.000E+00 0.000E+00    1        3        0        0
      3  1.800E+03 0.000E+00 0.000E+00 0.000E+00 0.000E+00    1        0        0        0


         STREAMBED PROPERTIES AND STREAM DIMENSIONS

 SEGMENT     BED HYD. COND.      BED THICKNESS     ELEV.-TOP OF BED     WIDTH OF STREAM     DEPTH OF STREAM    STREAM ROUGHNESS
    No.     UPPER     LOWER     UPPER     LOWER     UPPER     LOWER     UPPER     LOWER     UPPER     LOWER   CHANNEL      BANK

     1  5.000E+00 5.000E+00 1.000E+00 1.000E+00 4.850E+01 3.800E+01 2.000E+01 2.000E+01                     5.000E-02
     2  5.000E+00 5.000E+00 1.000E+00 1.000E+00 4.025E+01 3.800E+01 2.000E+01 2.000E+01                     5.000E-02
     3  5.000E+00 5.000E+00 1.000E+00 1.000E+00 3.800E+01 3.000E+01 2.000E+01 2.000E+01                     5.000E-02



 
 SOLVING FOR HEAD 


     8 CALLS TO PCG ROUTINE FOR TIME STEP   1 IN STRESS PERIOD    1
    34 TOTAL ITERATIONS

 OUTPUT CONTROL FOR STRESS PERIOD    1   TIME STEP    1
    SAVE BUDGET
    SAVE HEAD FOR ALL LAYERS
    PRINT HEAD FOR ALL LAYERS
 UBDSV2 SAVING "STREAMFLOW OUT  " ON UNIT  50 AT TIME STEP  1, STRESS PERIOD   1



 STREAM LISTING     PERIOD      1   STEP        1

 LAYER ROW COL. STREAM  RCH.  FLOW INTO     FLOW TO   FLOW OUT OF   OVRLND.     DIRECT     STREAM       STREAM     STREAM     STREAM   STREAMBED  STREAMBED
                SEG.NO.  NO.  STRM. RCH.    AQUIFER    STRM. RCH.    RUNOFF     PRECIP       ET          HEAD       DEPTH      WIDTH   CONDCTNC.   GRADIENT

   1   13    1     1     1    1.0000E+05 -5.7565E+03   1.0576E+05  0.000E+00  0.000E+00  0.000E+00  4.84085E+01  1.471E-01  2.000E+01  2.000E+04 -2.878E-01
   1   13    2     1     2    1.0576E+05 -8.6048E+03   1.1436E+05  0.000E+00  0.000E+00  0.000E+00  4.79373E+01  1.532E-01  2.000E+01  2.000E+04 -4.302E-01
   1   14    3     1     3    1.1436E+05 -7.8815E+03   1.2224E+05  0.000E+00  0.000E+00  0.000E+00  4.74668E+01  1.600E-01  2.000E+01  2.000E+04 -3.941E-01
   1   15    4     1     4    1.2224E+05 -7.7094E+03   1.2995E+05  0.000E+00  0.000E+00  0.000E+00  4.69958E+01  1.662E-01  2.000E+01  2.000E+04 -3.855E-01
   1   16    5     1     5    1.2995E+05 -7.4914E+03   1.3744E+05  0.000E+00  0.000E+00  0.000E+00  4.65245E+01  1.722E-01  2.000E+01  2.000E+04 -3.746E-01
   1   16    6     1     6    1.3744E+05 -5.9945E+03   1.4344E+05  0.000E+00  0.000E+00  0.000E+00  4.60523E+01  1.773E-01  2.000E+01  2.000E+04 -2.997E-01
   1   16    7     1     7    1.4344E+05 -6.1255E+03   1.4956E+05  0.000E+00  0.000E+00  0.000E+00  4.55796E+01  1.819E-01  2.000E+01  2.000E+04 -3.063E-01
   1   16    8     1     8    1.4956E+05 -6.1985E+03   1.5576E+05  0.000E+00  0.000E+00  0.000E+00  4.51069E+01  1.865E-01  2.000E+01  2.000E+04 -3.099E-01
   1   16    9     1     9    1.5576E+05 -6.1940E+03   1.6196E+05  0.000E+00  0.000E+00  0.000E+00  4.46341E+01  1.910E-01  2.000E+01  2.000E+04 -3.097E-01
   1   16   10     1    10    1.6196E+05 -6.1109E+03   1.6807E+05  0.000E+00  0.000E+00  0.000E+00  4.41613E+01  1.954E-01  2.000E+01  2.000E+04 -3.055E-01
   1   16   11     1    11    1.6807E+05 -5.9661E+03   1.7403E+05  0.000E+00  0.000E+00  0.000E+00  4.36883E+01  1.996E-01  2.000E+01  2.000E+04 -2.983E-01
   1   16   12     1    12    1.7403E+05 -7.4226E+03   1.8146E+05  0.000E+00  0.000E+00  0.000E+00  4.32156E+01  2.043E-01  2.000E+01  2.000E+04 -3.711E-01
   1   15   13     1    13    1.8146E+05 -7.6753E+03   1.8913E+05  0.000E+00  0.000E+00  0.000E+00  4.27435E+01  2.094E-01  2.000E+01  2.000E+04 -3.838E-01
   1   14   14     1    14    1.8913E+05 -7.8862E+03   1.9702E+05  0.000E+00  0.000E+00  0.000E+00  4.22715E+01  2.147E-01  2.000E+01  2.000E+04 -3.943E-01
   1   13   15     1    15    1.9702E+05 -8.1819E+03   2.0520E+05  0.000E+00  0.000E+00  0.000E+00  4.17995E+01  2.200E-01  2.000E+01  2.000E+04 -4.091E-01
   1   12   16     1    16    2.0520E+05 -9.2306E+03   2.1443E+05  0.000E+00  0.000E+00  0.000E+00  4.13279E+01  2.256E-01  2.000E+01  2.000E+04 -4.615E-01
   1   12   17     1    17    2.1443E+05 -6.3300E+03   2.2076E+05  0.000E+00  0.000E+00  0.000E+00  4.08556E+01  2.306E-01  2.000E+01  2.000E+04 -3.165E-01
   1   12   18     1    18    2.2076E+05 -6.1042E+03   2.2686E+05  0.000E+00  0.000E+00  0.000E+00  4.03823E+01  2.346E-01  2.000E+01  2.000E+04 -3.052E-01
   1   12   19     1    19    2.2686E+05 -7.8321E+03   2.3470E+05  0.000E+00  0.000E+00  0.000E+00  3.99094E+01  2.389E-01  2.000E+01  2.000E+04 -3.916E-01
   1   13   20     1    20    2.3470E+05 -5.7379E+03   2.4043E+05  0.000E+00  0.000E+00  0.000E+00  3.94363E+01  2.431E-01  2.000E+01  2.000E+04 -2.869E-01
   1   14   21     1    21    2.4043E+05 -3.4399E+03   2.4387E+05  0.000E+00  0.000E+00  0.000E+00  3.89618E+01  2.459E-01  2.000E+01  2.000E+04 -1.720E-01
   1   14   22     1    22    2.4387E+05  4.7570E+03   2.3912E+05  0.000E+00  0.000E+00  0.000E+00  3.84841E+01  2.455E-01  2.000E+01  2.000E+04  2.378E-01
   1    9   30     2     1    5.0000E+04 -5.5674E+03   5.5567E+04  0.000E+00  0.000E+00  0.000E+00  4.02447E+01  1.197E-01  2.000E+01  2.000E+04 -2.784E-01
   1    9   29     2     2    5.5567E+04 -5.8666E+03   6.1434E+04  0.000E+00  0.000E+00  0.000E+00  4.00023E+01  1.273E-01  2.000E+01  2.000E+04 -2.933E-01
   1    9   28     2     3    6.1434E+04 -6.1911E+03   6.7625E+04  0.000E+00  0.000E+00  0.000E+00  3.97600E+01  1.350E-01  2.000E+01  2.000E+04 -3.096E-01
   1    9   27     2     4    6.7625E+04 -9.5849E+03   7.7210E+04  0.000E+00  0.000E+00  0.000E+00  3.95197E+01  1.447E-01  2.000E+01  2.000E+04 -4.792E-01
   1   10   26     2     5    7.7210E+04 -7.7115E+03   8.4922E+04  0.000E+00  0.000E+00  0.000E+00  3.92798E+01  1.548E-01  2.000E+01  2.000E+04 -3.856E-01
   1   11   25     2     6    8.4922E+04 -6.5812E+03   9.1503E+04  0.000E+00  0.000E+00  0.000E+00  3.90379E+01  1.629E-01  2.000E+01  2.000E+04 -3.291E-01
   1   12   24     2     7    9.1503E+04 -5.3124E+03   9.6815E+04  0.000E+00  0.000E+00  0.000E+00  3.87944E+01  1.694E-01  2.000E+01  2.000E+04 -2.656E-01
   1   13   23     2     8    9.6815E+04 -3.7365E+03   1.0055E+05  0.000E+00  0.000E+00  0.000E+00  3.85492E+01  1.742E-01  2.000E+01  2.000E+04 -1.868E-01
   1   14   22     2     9    1.0055E+05  1.0866E+03   9.9465E+04  0.000E+00  0.000E+00  0.000E+00  3.83006E+01  1.756E-01  2.000E+01  2.000E+04  5.433E-02
   1   14   22     3     1    3.3858E+05 -8.7858E+03   3.4737E+05  0.000E+00  0.000E+00  0.000E+00  3.78070E+01  2.515E-01  2.000E+01  2.000E+04 -4.393E-01
   1   15   23     3     2    3.4737E+05 -2.1758E+03   3.4954E+05  0.000E+00  0.000E+00  0.000E+00  3.69205E+01  2.539E-01  2.000E+01  2.000E+04 -1.088E-01
   1   15   24     3     3    3.4954E+05 -1.8463E+03   3.5139E+05  0.000E+00  0.000E+00  0.000E+00  3.60325E+01  2.547E-01  2.000E+01  2.000E+04 -9.232E-02
   1   15   25     3     4    3.5139E+05 -2.3969E+03   3.5379E+05  0.000E+00  0.000E+00  0.000E+00  3.51445E+01  2.557E-01  2.000E+01  2.000E+04 -1.198E-01
   1   15   26     3     5    3.5379E+05 -4.4436E+03   3.5823E+05  0.000E+00  0.000E+00  0.000E+00  3.42571E+01  2.571E-01  2.000E+01  2.000E+04 -2.222E-01
   1   16   27     3     6    3.5823E+05 -4.7828E+03   3.6301E+05  0.000E+00  0.000E+00  0.000E+00  3.33702E+01  2.591E-01  2.000E+01  2.000E+04 -2.391E-01
   1   17   28     3     7    3.6301E+05 -5.5437E+03   3.6856E+05  0.000E+00  0.000E+00  0.000E+00  3.24836E+01  2.614E-01  2.000E+01  2.000E+04 -2.772E-01
   1   18   29     3     8    3.6856E+05 -6.8320E+03   3.7539E+05  0.000E+00  0.000E+00  0.000E+00  3.15973E+01  2.640E-01  2.000E+01  2.000E+04 -3.416E-01
   1   18   30     3     9    3.7539E+05 -6.6746E+03   3.8206E+05  0.000E+00  0.000E+00  0.000E+00  3.07113E+01  2.669E-01  2.000E+01  2.000E+04 -3.337E-01



1
              HEAD IN LAYER   1 AT END OF TIME STEP   1 IN STRESS PERIOD    1
  ---------------------------------------------------------------------------

          1      2      3      4      5      6      7      8      9     10
         11     12     13     14     15     16     17     18     19     20
         21     22     23     24     25     26     27     28     29     30
 .........................................................................
   1  ****** ****** ****** ****** ****** ****** ****** ****** ****** ******
      ****** ****** ****** ****** ****** ****** ****** ****** ****** ******
      ****** ****** ****** ****** ****** ****** ****** ****** ****** ******
   2  ****** ****** ****** ****** ****** ****** ****** ****** ****** ******
      ****** ****** ****** ****** ****** ****** ****** ****** ****** ******
      ****** ****** ****** ****** ****** ****** ****** ****** ****** ******
   3  ****** ****** ****** ****** ****** ****** ****** ****** ****** ******
      ****** ****** ****** ****** ****** ****** ****** ****** ****** ******
      ****** ****** ****** ****** ****** ****** ****** ****** ****** ******
   4  ****** ****** ****** ****** ****** ****** ****** ****** ****** ******
      ****** ****** ****** ****** ****** ****** ****** ****** ****** ******
      ****** ****** ****** ****** ****** ****** ****** ****** ****** ******
   5  ****** ****** ****** ****** ****** ****** ****** ****** ****** ******
      ****** ****** ****** ****** ****** ****** ****** ****** ****** ******
      ****** ****** ****** ****** ****** ****** ****** ****** ****** ******
   6  ****** ****** ****** ****** ****** ****** ****** ****** ****** ******
      ****** ****** ****** ****** ****** ****** ****** ****** ****** ******
      ****** ****** ****** ****** ****** ****** ****** ****** ****** ******
   7  ****** ****** ****** ****** ****** ****** ****** ****** ****** ******
      ****** ****** ****** ****** ****** ****** ****** ****** ****** ******
      ****** ****** ****** ****** ****** ****** ****** ****** ****** ******
   8  ****** ****** ****** ****** ****** ****** ****** ****** ****** ******
      ****** ****** ****** ****** ****** ****** ****** ****** ****** ******
      ****** ****** ****** ****** ****** ****** ****** ****** ****** ******
   9  ****** ****** ****** ****** ****** ****** ****** ****** ****** ******
      ****** ****** ****** ****** ****** ****** ****** ****** ****** ******
      ****** ****** ****** ****** ****** ****** ****** ****** ****** ******
  10  ****** ****** ****** ****** ****** ****** ****** ****** ****** ******
      ****** ****** ****** ****** ****** ****** ****** ****** ****** ******
      ****** ****** ****** ****** ****** ****** ****** ****** ****** ******
  11  ****** ****** ****** ****** ****** ****** ****** ****** ****** ******
      ****** ****** ****** ****** ****** ****** ****** ****** ****** ******
      ****** ****** ****** ****** ****** ****** ****** ****** ****** ******
  12  ****** ****** ****** ****** ****** ****** ****** ****** ****** ******
      ****** ****** ****** ****** ****** ****** ****** ****** ****** ******
      ****** ****** ****** ****** ****** ****** ****** ****** ****** ******
  13  ****** ****** ****** ****** ****** ****** ****** ****** ****** ******
      ****** ****** ****** ****** ****** ****** ****** ****** ****** ******
      ****** ****** ****** ****** ****** ****** ****** ****** ****** ******
  14  ****** ****** ****** ****** ****** ****** ****** ****** ****** ******
      ****** ****** ****** ****** ****** ****** ****** ****** ****** ******
      ****** ****** ****** ****** ****** ****** ****** ****** ****** ******
  15  ****** ****** ****** ****** ****** ****** ****** ****** ****** ******
      ****** ****** ****** ****** ****** ****** ****** ****** ****** ******
      ****** ****** ****** ****** ****** ****** ****** ****** ****** ******
  16  ****** ****** ****** ****** ****** ****** ****** ****** ****** ******
      ****** ****** ****** ****** ****** ****** ****** ****** ****** ******
      ****** ****** ****** ****** ****** ****** ****** ****** ****** ******
  17  ****** ****** ****** ****** ****** ****** ****** ****** ****** ******
      ****** ****** ****** ****** ****** ****** ****** ****** ****** ******
      ****** ****** ****** ****** ****** ****** ****** ****** ****** ******
  18  ****** ****** ****** ****** ****** ****** ****** ****** ****** ******
      ****** ****** ****** ****** ****** ****** ****** ****** ****** ******
      ****** ****** ****** ****** ****** ****** ****** ****** ****** ******
  19  ****** ****** ****** ****** ****** ****** ****** ****** ****** ******
      ****** ****** ****** ****** ****** ****** ****** ****** ****** ******
      ****** ****** ****** ****** ****** ****** ****** ****** ****** ******
  20  ****** ****** ****** ****** ****** ****** ****** ****** ****** ******
      ****** ****** ****** ****** ****** ****** ****** ****** ****** ******
      ****** ****** ****** ****** ****** ****** ****** ****** ****** ******
  21  ****** ****** ****** ****** ****** ****** ****** ****** ****** ******
      ****** ****** ****** ****** ****** ****** ****** ****** ****** ******
      ****** ****** ****** ****** ****** ****** ****** ****** ****** ******
  22  ****** ****** ****** ****** ****** ****** ****** ****** ****** ******
      ****** ****** ****** ****** ****** ****** ****** ****** ****** ******
      ****** ****** ****** ****** ****** ****** ****** ****** ****** ******
  23  ****** ****** ****** ****** ****** ****** ****** ****** ****** ******
      ****** ****** ****** ****** ****** ****** ****** ****** ****** ******
      ****** ****** ****** ****** ****** ****** ****** ****** ****** ******
  24  ****** ****** ****** ****** ****** ****** ****** ****** ****** ******
      ****** ****** ****** ****** ****** ****** ****** ****** ****** ******
      ****** ****** ****** ****** ****** ****** ****** ****** ****** ******
  25  ****** ****** ****** ****** ****** ****** ****** ****** ****** ******
      ****** ****** ****** ****** ****** ****** ****** ****** ****** ******
      ****** ****** ****** ****** ****** ****** ****** ****** ****** ******

 HEAD WILL BE SAVED ON UNIT   51 AT END OF TIME STEP    1, STRESS PERIOD    1
1
  VOLUMETRIC BUDGET FOR ENTIRE MODEL AT END OF TIME STEP    1, STRESS PERIOD   1
  ------------------------------------------------------------------------------

     CUMULATIVE VOLUMES      L**3       RATES FOR THIS TIME STEP      L**3/T
     ------------------                 ------------------------

           IN:                                      IN:
           ---                                      ---
             STORAGE =    17838284.4886               STORAGE =      193894.3966
       CONSTANT HEAD =     9265964.2641         CONSTANT HEAD =      100717.0029
               WELLS =           0.0000                 WELLS =           0.0000
            RECHARGE =     1269600.0000              RECHARGE =       13800.0000
      STREAM LEAKAGE =      537611.7657        STREAM LEAKAGE =        5843.6061

            TOTAL IN =    28911460.5184              TOTAL IN =      314255.0056

          OUT:                                     OUT:
          ----                                     ----
             STORAGE =           0.0000               STORAGE =           0.0000
       CONSTANT HEAD =           0.0000         CONSTANT HEAD =           0.0000
               WELLS =     7024021.6062                 WELLS =       76348.0609
            RECHARGE =           0.0000              RECHARGE =           0.0000
      STREAM LEAKAGE =    21887439.0505        STREAM LEAKAGE =      237906.9462

           TOTAL OUT =    28911460.6567             TOTAL OUT =      314255.0071

            IN - OUT =          -0.1383              IN - OUT =      -1.5034E-03

 PERCENT DISCREPANCY =          -0.00     PERCENT DISCREPANCY =          -0.00






         TIME SUMMARY AT END OF TIME STEP    1 IN STRESS PERIOD    1
                    SECONDS     MINUTES      HOURS       DAYS        YEARS
                    -----------------------------------------------------------
   TIME STEP LENGTH 7.94880E+06 1.32480E+05  2208.0      92.000     0.25188    
 STRESS PERIOD TIME 7.94880E+06 1.32480E+05  2208.0      92.000     0.25188    
         TOTAL TIME 7.94880E+06 1.32480E+05  2208.0      92.000     0.25188    
1
1
                            STRESS PERIOD NO.    2, LENGTH =   91.00000    
                            -----------------------------------------------

                              NUMBER OF TIME STEPS =     1

                               MULTIPLIER FOR DELT =     1.500

                            INITIAL TIME STEP SIZE =   91.00000    

 WELL NO.  LAYER   ROW   COL   STRESS RATE         
 --------------------------------------------------
      1      1     21     23     -0.1821E+05
      2      1     20     24     -0.1241E+05
      3      1     19     20     -0.2382E+05
      4      1     19     24     -0.2191E+05

      4 WELLS

                 RECHARGE =  2.000000E-03

 REUSING STREAM SEGMENT DATA FROM LAST STRESS PERIOD
 
 SOLVING FOR HEAD 


     7 CALLS TO PCG ROUTINE FOR TIME STEP   1 IN STRESS PERIOD    2
    27 TOTAL ITERATIONS

 OUTPUT CONTROL FOR STRESS PERIOD    2   TIME STEP    1
    SAVE BUDGET
    SAVE HEAD FOR ALL LAYERS
    PRINT HEAD FOR ALL LAYERS
 UBDSV2 SAVING "STREAMFLOW OUT  " ON UNIT  50 AT TIME STEP  1, STRESS PERIOD   2



 STREAM LISTING     PERIOD      2   STEP        1

 LAYER ROW COL. STREAM  RCH.  FLOW INTO     FLOW TO   FLOW OUT OF   OVRLND.     DIRECT     STREAM       STREAM     STREAM     STREAM   STREAMBED  STREAMBED
                SEG.NO.  NO.  STRM. RCH.    AQUIFER    STRM. RCH.    RUNOFF     PRECIP       ET          HEAD       DEPTH      WIDTH   CONDCTNC.   GRADIENT

   1   13    1     1     1    1.0000E+05 -3.8480E+03   1.0385E+05  0.000E+00  0.000E+00  0.000E+00  4.84077E+01  1.463E-01  2.000E+01  2.000E+04 -1.924E-01
   1   13    2     1     2    1.0385E+05 -6.1997E+03   1.1005E+05  0.000E+00  0.000E+00  0.000E+00  4.79347E+01  1.506E-01  2.000E+01  2.000E+04 -3.100E-01
   1   14    3     1     3    1.1005E+05 -5.1634E+03   1.1521E+05  0.000E+00  0.000E+00  0.000E+00  4.74622E+01  1.554E-01  2.000E+01  2.000E+04 -2.582E-01
   1   15    4     1     4    1.1521E+05 -5.0066E+03   1.2022E+05  0.000E+00  0.000E+00  0.000E+00  4.69891E+01  1.595E-01  2.000E+01  2.000E+04 -2.503E-01
   1   16    5     1     5    1.2022E+05 -5.1686E+03   1.2539E+05  0.000E+00  0.000E+00  0.000E+00  4.65159E+01  1.636E-01  2.000E+01  2.000E+04 -2.584E-01
   1   16    6     1     6    1.2539E+05 -4.0938E+03   1.2948E+05  0.000E+00  0.000E+00  0.000E+00  4.60423E+01  1.673E-01  2.000E+01  2.000E+04 -2.047E-01
   1   16    7     1     7    1.2948E+05 -4.1800E+03   1.3366E+05  0.000E+00  0.000E+00  0.000E+00  4.55683E+01  1.705E-01  2.000E+01  2.000E+04 -2.090E-01
   1   16    8     1     8    1.3366E+05 -4.2179E+03   1.3788E+05  0.000E+00  0.000E+00  0.000E+00  4.50942E+01  1.738E-01  2.000E+01  2.000E+04 -2.109E-01
   1   16    9     1     9    1.3788E+05 -4.1878E+03   1.4207E+05  0.000E+00  0.000E+00  0.000E+00  4.46202E+01  1.770E-01  2.000E+01  2.000E+04 -2.094E-01
   1   16   10     1    10    1.4207E+05 -4.0859E+03   1.4615E+05  0.000E+00  0.000E+00  0.000E+00  4.41460E+01  1.801E-01  2.000E+01  2.000E+04 -2.043E-01
   1   16   11     1    11    1.4615E+05 -3.9180E+03   1.5007E+05  0.000E+00  0.000E+00  0.000E+00  4.36717E+01  1.831E-01  2.000E+01  2.000E+04 -1.959E-01
   1   16   12     1    12    1.5007E+05 -4.6893E+03   1.5476E+05  0.000E+00  0.000E+00  0.000E+00  4.31976E+01  1.863E-01  2.000E+01  2.000E+04 -2.345E-01
   1   15   13     1    13    1.5476E+05 -4.4851E+03   1.5924E+05  0.000E+00  0.000E+00  0.000E+00  4.27237E+01  1.896E-01  2.000E+01  2.000E+04 -2.243E-01
   1   14   14     1    14    1.5924E+05 -4.5781E+03   1.6382E+05  0.000E+00  0.000E+00  0.000E+00  4.22497E+01  1.929E-01  2.000E+01  2.000E+04 -2.289E-01
   1   13   15     1    15    1.6382E+05 -4.9655E+03   1.6879E+05  0.000E+00  0.000E+00  0.000E+00  4.17758E+01  1.963E-01  2.000E+01  2.000E+04 -2.483E-01
   1   12   16     1    16    1.6879E+05 -6.5209E+03   1.7531E+05  0.000E+00  0.000E+00  0.000E+00  4.13026E+01  2.003E-01  2.000E+01  2.000E+04 -3.260E-01
   1   12   17     1    17    1.7531E+05 -4.0690E+03   1.7938E+05  0.000E+00  0.000E+00  0.000E+00  4.08290E+01  2.040E-01  2.000E+01  2.000E+04 -2.034E-01
   1   12   18     1    18    1.7938E+05 -3.8313E+03   1.8321E+05  0.000E+00  0.000E+00  0.000E+00  4.03544E+01  2.067E-01  2.000E+01  2.000E+04 -1.916E-01
   1   12   19     1    19    1.8321E+05 -5.1596E+03   1.8837E+05  0.000E+00  0.000E+00  0.000E+00  3.98802E+01  2.098E-01  2.000E+01  2.000E+04 -2.580E-01
   1   13   20     1    20    1.8837E+05 -2.6270E+03   1.9100E+05  0.000E+00  0.000E+00  0.000E+00  3.94056E+01  2.124E-01  2.000E+01  2.000E+04 -1.314E-01
   1   14   21     1    21    1.9100E+05 -2.6220E+02   1.9126E+05  0.000E+00  0.000E+00  0.000E+00  3.89293E+01  2.134E-01  2.000E+01  2.000E+04 -1.311E-02
   1   14   22     1    22    1.9126E+05  5.4393E+03   1.8582E+05  0.000E+00  0.000E+00  0.000E+00  3.84503E+01  2.116E-01  2.000E+01  2.000E+04  2.720E-01
   1    9   30     2     1    5.0000E+04 -3.4515E+03   5.3452E+04  0.000E+00  0.000E+00  0.000E+00  4.02432E+01  1.182E-01  2.000E+01  2.000E+04 -1.726E-01
   1    9   29     2     2    5.3452E+04 -3.7758E+03   5.7227E+04  0.000E+00  0.000E+00  0.000E+00  3.99981E+01  1.231E-01  2.000E+01  2.000E+04 -1.888E-01
   1    9   28     2     3    5.7227E+04 -4.1523E+03   6.1380E+04  0.000E+00  0.000E+00  0.000E+00  3.97534E+01  1.284E-01  2.000E+01  2.000E+04 -2.076E-01
   1    9   27     2     4    6.1380E+04 -7.1599E+03   6.8540E+04  0.000E+00  0.000E+00  0.000E+00  3.95106E+01  1.356E-01  2.000E+01  2.000E+04 -3.580E-01
   1   10   26     2     5    6.8540E+04 -4.8239E+03   7.3363E+04  0.000E+00  0.000E+00  0.000E+00  3.92679E+01  1.429E-01  2.000E+01  2.000E+04 -2.412E-01
   1   11   25     2     6    7.3363E+04 -3.7212E+03   7.7085E+04  0.000E+00  0.000E+00  0.000E+00  3.90230E+01  1.480E-01  2.000E+01  2.000E+04 -1.861E-01
   1   12   24     2     7    7.7085E+04 -2.7168E+03   7.9801E+04  0.000E+00  0.000E+00  0.000E+00  3.87768E+01  1.518E-01  2.000E+01  2.000E+04 -1.358E-01
   1   13   23     2     8    7.9801E+04 -1.6322E+03   8.1434E+04  0.000E+00  0.000E+00  0.000E+00  3.85293E+01  1.543E-01  2.000E+01  2.000E+04 -8.161E-02
   1   14   22     2     9    8.1434E+04  2.0161E+03   7.9417E+04  0.000E+00  0.000E+00  0.000E+00  3.82791E+01  1.541E-01  2.000E+01  2.000E+04  1.008E-01
   1   14   22     3     1    2.6524E+05 -8.1051E+03   2.7334E+05  0.000E+00  0.000E+00  0.000E+00  3.77730E+01  2.175E-01  2.000E+01  2.000E+04 -4.053E-01
   1   15   23     3     2    2.7334E+05  1.1692E+03   2.7217E+05  0.000E+00  0.000E+00  0.000E+00  3.68858E+01  2.192E-01  2.000E+01  2.000E+04  5.846E-02
   1   15   24     3     3    2.7217E+05  6.0091E+02   2.7157E+05  0.000E+00  0.000E+00  0.000E+00  3.59965E+01  2.187E-01  2.000E+01  2.000E+04  3.005E-02
   1   15   25     3     4    2.7157E+05  2.2930E+01   2.7155E+05  0.000E+00  0.000E+00  0.000E+00  3.51075E+01  2.186E-01  2.000E+01  2.000E+04  1.147E-03
   1   15   26     3     5    2.7155E+05 -1.4531E+03   2.7300E+05  0.000E+00  0.000E+00  0.000E+00  3.42189E+01  2.189E-01  2.000E+01  2.000E+04 -7.266E-02
   1   16   27     3     6    2.7300E+05 -9.5714E+02   2.7396E+05  0.000E+00  0.000E+00  0.000E+00  3.33306E+01  2.195E-01  2.000E+01  2.000E+04 -4.786E-02
   1   17   28     3     7    2.7396E+05 -1.7159E+03   2.7567E+05  0.000E+00  0.000E+00  0.000E+00  3.24424E+01  2.202E-01  2.000E+01  2.000E+04 -8.580E-02
   1   18   29     3     8    2.7567E+05 -3.5136E+03   2.7919E+05  0.000E+00  0.000E+00  0.000E+00  3.15547E+01  2.214E-01  2.000E+01  2.000E+04 -1.757E-01
   1   18   30     3     9    2.7919E+05 -4.2111E+03   2.8340E+05  0.000E+00  0.000E+00  0.000E+00  3.06677E+01  2.233E-01  2.000E+01  2.000E+04 -2.106E-01



1
              HEAD IN LAYER   1 AT END OF TIME STEP   1 IN STRESS PERIOD    2
  ---------------------------------------------------------------------------

          1      2      3      4      5      6      7      8      9     10
         11     12     13     14     15     16     17     18     19     20
         21     22     23     24     25     26     27     28     29     30
 .........................................................................
   1  ****** ****** ****** ****** ****** ****** ****** ****** ****** ******
      ****** ****** ****** ****** ****** ****** ****** ****** ****** ******
      ****** ****** ****** ****** ****** ****** ****** ****** ****** ******
   2  ****** ****** ****** ****** ****** ****** ****** ****** ****** ******
      ****** ****** ****** ****** ****** ****** ****** ****** ****** ******
      ****** ****** ****** ****** ****** ****** ****** ****** ****** ******
   3  ****** ****** ****** ****** ****** ****** ****** ****** ****** ******
      ****** ****** ****** ****** ****** ****** ****** ****** ****** ******
      ****** ****** ****** ****** ****** ****** ****** ****** ****** ******
   4  ****** ****** ****** ****** ****** ****** ****** ****** ****** ******
      ****** ****** ****** ****** ****** ****** ****** ****** ****** ******
      ****** ****** ****** ****** ****** ****** ****** ****** ****** ******
   5  ****** ****** ****** ****** ****** ****** ****** ****** ****** ******
      ****** ****** ****** ****** ****** ****** ****** ****** ****** ******
      ****** ****** ****** ****** ****** ****** ****** ****** ****** ******
   6  ****** ****** ****** ****** ****** ****** ****** ****** ****** ******
      ****** ****** ****** ****** ****** ****** ****** ****** ****** ******
      ****** ****** ****** ****** ****** ****** ****** ****** ****** ******
   7  ****** ****** ****** ****** ****** ****** ****** ****** ****** ******
      ****** ****** ****** ****** ****** ****** ****** ****** ****** ******
      ****** ****** ****** ****** ****** ****** ****** ****** ****** ******
   8  ****** ****** ****** ****** ****** ****** ****** ****** ****** ******
      ****** ****** ****** ****** ****** ****** ****** ****** ****** ******
      ****** ****** ****** ****** ****** ****** ****** ****** ****** ******
   9  ****** ****** ****** ****** ****** ****** ****** ****** ****** ******
      ****** ****** ****** ****** ****** ****** ****** ****** ****** ******
      ****** ****** ****** ****** ****** ****** ****** ****** ****** ******
  10  ****** ****** ****** ****** ****** ****** ****** ****** ****** ******
      ****** ****** ****** ****** ****** ****** ****** ****** ****** ******
      ****** ****** ****** ****** ****** ****** ****** ****** ****** ******
  11  ****** ****** ****** ****** ****** ****** ****** ****** ****** ******
      ****** ****** ****** ****** ****** ****** ****** ****** ****** ******
      ****** ****** ****** ****** ****** ****** ****** ****** ****** ******
  12  ****** ****** ****** ****** ****** ****** ****** ****** ****** ******
      ****** ****** ****** ****** ****** ****** ****** ****** ****** ******
      ****** ****** ****** ****** ****** ****** ****** ****** ****** ******
  13  ****** ****** ****** ****** ****** ****** ****** ****** ****** ******
      ****** ****** ****** ****** ****** ****** ****** ****** ****** ******
      ****** ****** ****** ****** ****** ****** ****** ****** ****** ******
  14  ****** ****** ****** ****** ****** ****** ****** ****** ****** ******
      ****** ****** ****** ****** ****** ****** ****** ****** ****** ******
      ****** ****** ****** ****** ****** ****** ****** ****** ****** ******
  15  ****** ****** ****** ****** ****** ****** ****** ****** ****** ******
      ****** ****** ****** ****** ****** ****** ****** ****** ****** ******
      ****** ****** ****** ****** ****** ****** ****** ****** ****** ******
  16  ****** ****** ****** ****** ****** ****** ****** ****** ****** ******
      ****** ****** ****** ****** ****** ****** ****** ****** ****** ******
      ****** ****** ****** ****** ****** ****** ****** ****** ****** ******
  17  ****** ****** ****** ****** ****** ****** ****** ****** ****** ******
      ****** ****** ****** ****** ****** ****** ****** ****** ****** ******
      ****** ****** ****** ****** ****** ****** ****** ****** ****** ******
  18  ****** ****** ****** ****** ****** ****** ****** ****** ****** ******
      ****** ****** ****** ****** ****** ****** ****** ****** ****** ******
      ****** ****** ****** ****** ****** ****** ****** ****** ****** ******
  19  ****** ****** ****** ****** ****** ****** ****** ****** ****** ******
      ****** ****** ****** ****** ****** ****** ****** ****** ****** ******
      ****** ****** ****** ****** ****** ****** ****** ****** ****** ******
  20  ****** ****** ****** ****** ****** ****** ****** ****** ****** ******
      ****** ****** ****** ****** ****** ****** ****** ****** ****** ******
      ****** ****** ****** ****** ****** ****** ****** ****** ****** ******
  21  ****** ****** ****** ****** ****** ****** ****** ****** ****** ******
      ****** ****** ****** ****** ****** ****** ****** ****** ****** ******
      ****** ****** ****** ****** ****** ****** ****** ****** ****** ******
  22  ****** ****** ****** ****** ****** ****** ****** ****** ****** ******
      ****** ****** ****** ****** ****** ****** ****** ****** ****** ******
      ****** ****** ****** ****** ****** ****** ****** ****** ****** ******
  23  ****** ****** ****** ****** ****** ****** ****** ****** ****** ******
      ****** ****** ****** ****** ****** ****** ****** ****** ****** ******
      ****** ****** ****** ****** ****** ****** ****** ****** ****** ******
  24  ****** ****** ****** ****** ****** ****** ****** ****** ****** ******
      ****** ****** ****** ****** ****** ****** ****** ****** ****** ******
      ****** ****** ****** ****** ****** ****** ****** ****** ****** ******
  25  ****** ****** ****** ****** ****** ****** ****** ****** ****** ******
      ****** ****** ****** ****** ****** ****** ****** ****** ****** ******
      ****** ****** ****** ****** ****** ****** ****** ****** ****** ******

 HEAD WILL BE SAVED ON UNIT   51 AT END OF TIME STEP    1, STRESS PERIOD    2
1
  VOLUMETRIC BUDGET FOR ENTIRE MODEL AT END OF TIME STEP    1, STRESS PERIOD   2
  ------------------------------------------------------------------------------

     CUMULATIVE VOLUMES      L**3       RATES FOR THIS TIME STEP      L**3/T
     ------------------                 ------------------------

           IN:                                      IN:
           ---                                      ---
             STORAGE =    21059275.6285               STORAGE =       35395.5070
       CONSTANT HEAD =    20108722.8232         CONSTANT HEAD =      119151.1930
               WELLS =           0.0000                 WELLS =           0.0000
            RECHARGE =     6292800.0000              RECHARGE =       55200.0000
      STREAM LEAKAGE =     1379225.3264        STREAM LEAKAGE =        9248.5007

            TOTAL IN =    48840023.7780              TOTAL IN =      218995.2007

          OUT:                                     OUT:
          ----                                     ----
             STORAGE =           0.0000               STORAGE =           0.0000
       CONSTANT HEAD =           0.0000         CONSTANT HEAD =           0.0000
               WELLS =    13971695.1515                 WELLS =       76348.0609
            RECHARGE =           0.0000              RECHARGE =           0.0000
      STREAM LEAKAGE =    34868329.2079        STREAM LEAKAGE =      142647.1446

           TOTAL OUT =    48840024.3593             TOTAL OUT =      218995.2055

            IN - OUT =          -0.5813              IN - OUT =      -4.8682E-03

 PERCENT DISCREPANCY =          -0.00     PERCENT DISCREPANCY =          -0.00






         TIME SUMMARY AT END OF TIME STEP    1 IN STRESS PERIOD    2
                    SECONDS     MINUTES      HOURS       DAYS        YEARS
                    -----------------------------------------------------------
   TIME STEP LENGTH 7.86240E+06 1.31040E+05  2184.0      91.000     0.24914    
 STRESS PERIOD TIME 7.86240E+06 1.31040E+05  2184.0      91.000     0.24914    
         TOTAL TIME 1.58112E+07 2.63520E+05  4392.0      183.00     0.50103    
1
1
                            STRESS PERIOD NO.    3, LENGTH =   91.00000    
                            -----------------------------------------------

                              NUMBER OF TIME STEPS =     1

                               MULTIPLIER FOR DELT =     1.500

                            INITIAL TIME STEP SIZE =   91.00000    

 WELL NO.  LAYER   ROW   COL   STRESS RATE         
 --------------------------------------------------
      1      1     21     23     -0.1821E+05
      2      1     20     24     -0.1241E+05
      3      1     19     20     -0.2382E+05
      4      1     19     24     -0.2191E+05

      4 WELLS

                 RECHARGE =   0.00000    

 REUSING STREAM SEGMENT DATA FROM LAST STRESS PERIOD
 
 SOLVING FOR HEAD 


     7 CALLS TO PCG ROUTINE FOR TIME STEP   1 IN STRESS PERIOD    3
    27 TOTAL ITERATIONS

 OUTPUT CONTROL FOR STRESS PERIOD    3   TIME STEP    1
    SAVE BUDGET
    SAVE HEAD FOR ALL LAYERS
    PRINT HEAD FOR ALL LAYERS
 UBDSV2 SAVING "STREAMFLOW OUT  " ON UNIT  50 AT TIME STEP  1, STRESS PERIOD   3



 STREAM LISTING     PERIOD      3   STEP        1

 LAYER ROW COL. STREAM  RCH.  FLOW INTO     FLOW TO   FLOW OUT OF   OVRLND.     DIRECT     STREAM       STREAM     STREAM     STREAM   STREAMBED  STREAMBED
                SEG.NO.  NO.  STRM. RCH.    AQUIFER    STRM. RCH.    RUNOFF     PRECIP       ET          HEAD       DEPTH      WIDTH   CONDCTNC.   GRADIENT

   1   13    1     1     1    1.0000E+05 -2.9383E+03   1.0294E+05  0.000E+00  0.000E+00  0.000E+00  4.84073E+01  1.459E-01  2.000E+01  2.000E+04 -1.469E-01
   1   13    2     1     2    1.0294E+05 -4.9545E+03   1.0789E+05  0.000E+00  0.000E+00  0.000E+00  4.79334E+01  1.493E-01  2.000E+01  2.000E+04 -2.477E-01
   1   14    3     1     3    1.0789E+05 -3.9245E+03   1.1182E+05  0.000E+00  0.000E+00  0.000E+00  4.74599E+01  1.530E-01  2.000E+01  2.000E+04 -1.962E-01
   1   15    4     1     4    1.1182E+05 -3.7889E+03   1.1561E+05  0.000E+00  0.000E+00  0.000E+00  4.69858E+01  1.562E-01  2.000E+01  2.000E+04 -1.894E-01
   1   16    5     1     5    1.1561E+05 -4.0629E+03   1.1967E+05  0.000E+00  0.000E+00  0.000E+00  4.65117E+01  1.595E-01  2.000E+01  2.000E+04 -2.031E-01
   1   16    6     1     6    1.1967E+05 -3.2191E+03   1.2289E+05  0.000E+00  0.000E+00  0.000E+00  4.60374E+01  1.624E-01  2.000E+01  2.000E+04 -1.610E-01
   1   16    7     1     7    1.2289E+05 -3.2809E+03   1.2617E+05  0.000E+00  0.000E+00  0.000E+00  4.55627E+01  1.650E-01  2.000E+01  2.000E+04 -1.640E-01
   1   16    8     1     8    1.2617E+05 -3.3008E+03   1.2947E+05  0.000E+00  0.000E+00  0.000E+00  4.50881E+01  1.676E-01  2.000E+01  2.000E+04 -1.650E-01
   1   16    9     1     9    1.2947E+05 -3.2615E+03   1.3273E+05  0.000E+00  0.000E+00  0.000E+00  4.46134E+01  1.702E-01  2.000E+01  2.000E+04 -1.631E-01
   1   16   10     1    10    1.3273E+05 -3.1573E+03   1.3589E+05  0.000E+00  0.000E+00  0.000E+00  4.41386E+01  1.727E-01  2.000E+01  2.000E+04 -1.579E-01
   1   16   11     1    11    1.3589E+05 -2.9854E+03   1.3887E+05  0.000E+00  0.000E+00  0.000E+00  4.36637E+01  1.750E-01  2.000E+01  2.000E+04 -1.493E-01
   1   16   12     1    12    1.3887E+05 -3.3971E+03   1.4227E+05  0.000E+00  0.000E+00  0.000E+00  4.31888E+01  1.774E-01  2.000E+01  2.000E+04 -1.699E-01
   1   15   13     1    13    1.4227E+05 -3.0684E+03   1.4534E+05  0.000E+00  0.000E+00  0.000E+00  4.27140E+01  1.799E-01  2.000E+01  2.000E+04 -1.534E-01
   1   14   14     1    14    1.4534E+05 -3.1284E+03   1.4847E+05  0.000E+00  0.000E+00  0.000E+00  4.22390E+01  1.822E-01  2.000E+01  2.000E+04 -1.564E-01
   1   13   15     1    15    1.4847E+05 -3.5632E+03   1.5203E+05  0.000E+00  0.000E+00  0.000E+00  4.17642E+01  1.847E-01  2.000E+01  2.000E+04 -1.782E-01
   1   12   16     1    16    1.5203E+05 -5.2279E+03   1.5726E+05  0.000E+00  0.000E+00  0.000E+00  4.12902E+01  1.879E-01  2.000E+01  2.000E+04 -2.614E-01
   1   12   17     1    17    1.5726E+05 -3.1044E+03   1.6036E+05  0.000E+00  0.000E+00  0.000E+00  4.08159E+01  1.909E-01  2.000E+01  2.000E+04 -1.552E-01
   1   12   18     1    18    1.6036E+05 -2.8831E+03   1.6325E+05  0.000E+00  0.000E+00  0.000E+00  4.03408E+01  1.931E-01  2.000E+01  2.000E+04 -1.442E-01
   1   12   19     1    19    1.6325E+05 -4.0321E+03   1.6728E+05  0.000E+00  0.000E+00  0.000E+00  3.98660E+01  1.955E-01  2.000E+01  2.000E+04 -2.016E-01
   1   13   20     1    20    1.6728E+05 -1.4547E+03   1.6873E+05  0.000E+00  0.000E+00  0.000E+00  3.93907E+01  1.975E-01  2.000E+01  2.000E+04 -7.273E-02
   1   14   21     1    21    1.6873E+05  9.6173E+02   1.6777E+05  0.000E+00  0.000E+00  0.000E+00  3.89136E+01  1.977E-01  2.000E+01  2.000E+04  4.809E-02
   1   14   22     1    22    1.6777E+05  5.6350E+03   1.6214E+05  0.000E+00  0.000E+00  0.000E+00  3.84340E+01  1.953E-01  2.000E+01  2.000E+04  2.817E-01
   1    9   30     2     1    5.0000E+04 -2.6836E+03   5.2684E+04  0.000E+00  0.000E+00  0.000E+00  4.02427E+01  1.177E-01  2.000E+01  2.000E+04 -1.342E-01
   1    9   29     2     2    5.2684E+04 -3.0181E+03   5.5702E+04  0.000E+00  0.000E+00  0.000E+00  3.99966E+01  1.216E-01  2.000E+01  2.000E+04 -1.509E-01
   1    9   28     2     3    5.5702E+04 -3.4057E+03   5.9107E+04  0.000E+00  0.000E+00  0.000E+00  3.97509E+01  1.259E-01  2.000E+01  2.000E+04 -1.703E-01
   1    9   27     2     4    5.9107E+04 -6.1519E+03   6.5259E+04  0.000E+00  0.000E+00  0.000E+00  3.95071E+01  1.321E-01  2.000E+01  2.000E+04 -3.076E-01
   1   10   26     2     5    6.5259E+04 -3.7570E+03   6.9016E+04  0.000E+00  0.000E+00  0.000E+00  3.92633E+01  1.383E-01  2.000E+01  2.000E+04 -1.878E-01
   1   11   25     2     6    6.9016E+04 -2.7034E+03   7.1720E+04  0.000E+00  0.000E+00  0.000E+00  3.90172E+01  1.422E-01  2.000E+01  2.000E+04 -1.352E-01
   1   12   24     2     7    7.1720E+04 -1.8422E+03   7.3562E+04  0.000E+00  0.000E+00  0.000E+00  3.87700E+01  1.450E-01  2.000E+01  2.000E+04 -9.211E-02
   1   13   23     2     8    7.3562E+04 -9.8193E+02   7.4544E+04  0.000E+00  0.000E+00  0.000E+00  3.85217E+01  1.467E-01  2.000E+01  2.000E+04 -4.910E-02
   1   14   22     2     9    7.4544E+04  2.3724E+03   7.2171E+04  0.000E+00  0.000E+00  0.000E+00  3.82708E+01  1.458E-01  2.000E+01  2.000E+04  1.186E-01
   1   14   22     3     1    2.3431E+05 -7.8914E+03   2.4220E+05  0.000E+00  0.000E+00  0.000E+00  3.77576E+01  2.021E-01  2.000E+01  2.000E+04 -3.946E-01
   1   15   23     3     2    2.4220E+05  2.3928E+03   2.3981E+05  0.000E+00  0.000E+00  0.000E+00  3.68701E+01  2.035E-01  2.000E+01  2.000E+04  1.196E-01
   1   15   24     3     3    2.3981E+05  1.3960E+03   2.3841E+05  0.000E+00  0.000E+00  0.000E+00  3.59803E+01  2.025E-01  2.000E+01  2.000E+04  6.980E-02
   1   15   25     3     4    2.3841E+05  7.7461E+02   2.3764E+05  0.000E+00  0.000E+00  0.000E+00  3.50909E+01  2.020E-01  2.000E+01  2.000E+04  3.873E-02
   1   15   26     3     5    2.3764E+05 -5.3368E+02   2.3817E+05  0.000E+00  0.000E+00  0.000E+00  3.42019E+01  2.019E-01  2.000E+01  2.000E+04 -2.668E-02
   1   16   27     3     6    2.3817E+05  2.9238E+02   2.3788E+05  0.000E+00  0.000E+00  0.000E+00  3.33131E+01  2.020E-01  2.000E+01  2.000E+04  1.462E-02
   1   17   28     3     7    2.3788E+05 -4.3540E+02   2.3831E+05  0.000E+00  0.000E+00  0.000E+00  3.24242E+01  2.020E-01  2.000E+01  2.000E+04 -2.177E-02
   1   18   29     3     8    2.3831E+05 -2.3046E+03   2.4062E+05  0.000E+00  0.000E+00  0.000E+00  3.15360E+01  2.027E-01  2.000E+01  2.000E+04 -1.152E-01
   1   18   30     3     9    2.4062E+05 -3.3747E+03   2.4399E+05  0.000E+00  0.000E+00  0.000E+00  3.06486E+01  2.041E-01  2.000E+01  2.000E+04 -1.687E-01



1
              HEAD IN LAYER   1 AT END OF TIME STEP   1 IN STRESS PERIOD    3
  ---------------------------------------------------------------------------

          1      2      3      4      5      6      7      8      9     10
         11     12     13     14     15     16     17     18     19     20
         21     22     23     24     25     26     27     28     29     30
 .........................................................................
   1  ****** ****** ****** ****** ****** ****** ****** ****** ****** ******
      ****** ****** ****** ****** ****** ****** ****** ****** ****** ******
      ****** ****** ****** ****** ****** ****** ****** ****** ****** ******
   2  ****** ****** ****** ****** ****** ****** ****** ****** ****** ******
      ****** ****** ****** ****** ****** ****** ****** ****** ****** ******
      ****** ****** ****** ****** ****** ****** ****** ****** ****** ******
   3  ****** ****** ****** ****** ****** ****** ****** ****** ****** ******
      ****** ****** ****** ****** ****** ****** ****** ****** ****** ******
      ****** ****** ****** ****** ****** ****** ****** ****** ****** ******
   4  ****** ****** ****** ****** ****** ****** ****** ****** ****** ******
      ****** ****** ****** ****** ****** ****** ****** ****** ****** ******
      ****** ****** ****** ****** ****** ****** ****** ****** ****** ******
   5  ****** ****** ****** ****** ****** ****** ****** ****** ****** ******
      ****** ****** ****** ****** ****** ****** ****** ****** ****** ******
      ****** ****** ****** ****** ****** ****** ****** ****** ****** ******
   6  ****** ****** ****** ****** ****** ****** ****** ****** ****** ******
      ****** ****** ****** ****** ****** ****** ****** ****** ****** ******
      ****** ****** ****** ****** ****** ****** ****** ****** ****** ******
   7  ****** ****** ****** ****** ****** ****** ****** ****** ****** ******
      ****** ****** ****** ****** ****** ****** ****** ****** ****** ******
      ****** ****** ****** ****** ****** ****** ****** ****** ****** ******
   8  ****** ****** ****** ****** ****** ****** ****** ****** ****** ******
      ****** ****** ****** ****** ****** ****** ****** ****** ****** ******
      ****** ****** ****** ****** ****** ****** ****** ****** ****** ******
   9  ****** ****** ****** ****** ****** ****** ****** ****** ****** ******
      ****** ****** ****** ****** ****** ****** ****** ****** ****** ******
      ****** ****** ****** ****** ****** ****** ****** ****** ****** ******
  10  ****** ****** ****** ****** ****** ****** ****** ****** ****** ******
      ****** ****** ****** ****** ****** ****** ****** ****** ****** ******
      ****** ****** ****** ****** ****** ****** ****** ****** ****** ******
  11  ****** ****** ****** ****** ****** ****** ****** ****** ****** ******
      ****** ****** ****** ****** ****** ****** ****** ****** ****** ******
      ****** ****** ****** ****** ****** ****** ****** ****** ****** ******
  12  ****** ****** ****** ****** ****** ****** ****** ****** ****** ******
      ****** ****** ****** ****** ****** ****** ****** ****** ****** ******
      ****** ****** ****** ****** ****** ****** ****** ****** ****** ******
  13  ****** ****** ****** ****** ****** ****** ****** ****** ****** ******
      ****** ****** ****** ****** ****** ****** ****** ****** ****** ******
      ****** ****** ****** ****** ****** ****** ****** ****** ****** ******
  14  ****** ****** ****** ****** ****** ****** ****** ****** ****** ******
      ****** ****** ****** ****** ****** ****** ****** ****** ****** ******
      ****** ****** ****** ****** ****** ****** ****** ****** ****** ******
  15  ****** ****** ****** ****** ****** ****** ****** ****** ****** ******
      ****** ****** ****** ****** ****** ****** ****** ****** ****** ******
      ****** ****** ****** ****** ****** ****** ****** ****** ****** ******
  16  ****** ****** ****** ****** ****** ****** ****** ****** ****** ******
      ****** ****** ****** ****** ****** ****** ****** ****** ****** ******
      ****** ****** ****** ****** ****** ****** ****** ****** ****** ******
  17  ****** ****** ****** ****** ****** ****** ****** ****** ****** ******
      ****** ****** ****** ****** ****** ****** ****** ****** ****** ******
      ****** ****** ****** ****** ****** ****** ****** ****** ****** ******
  18  ****** ****** ****** ****** ****** ****** ****** ****** ****** ******
      ****** ****** ****** ****** ****** ****** ****** ****** ****** ******
      ****** ****** ****** ****** ****** ****** ****** ****** ****** ******
  19  ****** ****** ****** ****** ****** ****** ****** ****** ****** ******
      ****** ****** ****** ****** ****** ****** ****** ****** ****** ******
      ****** ****** ****** ****** ****** ****** ****** ****** ****** ******
  20  ****** ****** ****** ****** ****** ****** ****** ****** ****** ******
      ****** ****** ****** ****** ****** ****** ****** ****** ****** ******
      ****** ****** ****** ****** ****** ****** ****** ****** ****** ******
  21  ****** ****** ****** ****** ****** ****** ****** ****** ****** ******
      ****** ****** ****** ****** ****** ****** ****** ****** ****** ******
      ****** ****** ****** ****** ****** ****** ****** ****** ****** ******
  22  ****** ****** ****** ****** ****** ****** ****** ****** ****** ******
      ****** ****** ****** ****** ****** ****** ****** ****** ****** ******
      ****** ****** ****** ****** ****** ****** ****** ****** ****** ******
  23  ****** ****** ****** ****** ****** ****** ****** ****** ****** ******
      ****** ****** ****** ****** ****** ****** ****** ****** ****** ******
      ****** ****** ****** ****** ****** ****** ****** ****** ****** ******
  24  ****** ****** ****** ****** ****** ****** ****** ****** ****** ******
      ****** ****** ****** ****** ****** ****** ****** ****** ****** ******
      ****** ****** ****** ****** ****** ****** ****** ****** ****** ******
  25  ****** ****** ****** ****** ****** ****** ****** ****** ****** ******
      ****** ****** ****** ****** ****** ****** ****** ****** ****** ******
      ****** ****** ****** ****** ****** ****** ****** ****** ****** ******

 HEAD WILL BE SAVED ON UNIT   51 AT END OF TIME STEP    1, STRESS PERIOD    3
1
  VOLUMETRIC BUDGET FOR ENTIRE MODEL AT END OF TIME STEP    1, STRESS PERIOD   3
  ------------------------------------------------------------------------------

     CUMULATIVE VOLUMES      L**3       RATES FOR THIS TIME STEP      L**3/T
     ------------------                 ------------------------

           IN:                                      IN:
           ---                                      ---
             STORAGE =    23503880.9332               STORAGE =       26863.7946
       CONSTANT HEAD =    33165051.2592         CONSTANT HEAD =      143476.1367
               WELLS =           0.0000                 WELLS =           0.0000
            RECHARGE =     6292800.0000              RECHARGE =           0.0000
      STREAM LEAKAGE =     2637292.4570        STREAM LEAKAGE =       13824.9135

            TOTAL IN =    65599024.6494              TOTAL IN =      184164.8447

          OUT:                                     OUT:
          ----                                     ----
             STORAGE =           0.0000               STORAGE =           0.0000
       CONSTANT HEAD =           0.0000         CONSTANT HEAD =           0.0000
               WELLS =    20919368.6967                 WELLS =       76348.0609
            RECHARGE =           0.0000              RECHARGE =           0.0000
      STREAM LEAKAGE =    44679656.7663        STREAM LEAKAGE =      107816.7864

           TOTAL OUT =    65599025.4630             TOTAL OUT =      184164.8473

            IN - OUT =          -0.8136              IN - OUT =      -2.5526E-03

 PERCENT DISCREPANCY =          -0.00     PERCENT DISCREPANCY =          -0.00






         TIME SUMMARY AT END OF TIME STEP    1 IN STRESS PERIOD    3
                    SECONDS     MINUTES      HOURS       DAYS        YEARS
                    -----------------------------------------------------------
   TIME STEP LENGTH 7.86240E+06 1.31040E+05  2184.0      91.000     0.24914    
 STRESS PERIOD TIME 7.86240E+06 1.31040E+05  2184.0      91.000     0.24914    
         TOTAL TIME 2.36736E+07 3.94560E+05  6576.0      274.00     0.75017    
1
1
                            STRESS PERIOD NO.    4, LENGTH =   91.00000    
                            -----------------------------------------------

                              NUMBER OF TIME STEPS =     1

                               MULTIPLIER FOR DELT =     1.500

                            INITIAL TIME STEP SIZE =   91.00000    

 WELL NO.  LAYER   ROW   COL   STRESS RATE         
 --------------------------------------------------
      1      1     21     23     -0.1821E+05
      2      1     20     24     -0.1241E+05
      3      1     19     20     -0.2382E+05
      4      1     19     24     -0.2191E+05

      4 WELLS

                 RECHARGE =  1.000000E-03

 REUSING STREAM SEGMENT DATA FROM LAST STRESS PERIOD
 
 SOLVING FOR HEAD 


     6 CALLS TO PCG ROUTINE FOR TIME STEP   1 IN STRESS PERIOD    4
    21 TOTAL ITERATIONS

 OUTPUT CONTROL FOR STRESS PERIOD    4   TIME STEP    1
    SAVE BUDGET
    SAVE HEAD FOR ALL LAYERS
    PRINT HEAD FOR ALL LAYERS
 UBDSV2 SAVING "STREAMFLOW OUT  " ON UNIT  50 AT TIME STEP  1, STRESS PERIOD   4



 STREAM LISTING     PERIOD      4   STEP        1

 LAYER ROW COL. STREAM  RCH.  FLOW INTO     FLOW TO   FLOW OUT OF   OVRLND.     DIRECT     STREAM       STREAM     STREAM     STREAM   STREAMBED  STREAMBED
                SEG.NO.  NO.  STRM. RCH.    AQUIFER    STRM. RCH.    RUNOFF     PRECIP       ET          HEAD       DEPTH      WIDTH   CONDCTNC.   GRADIENT

   1   13    1     1     1    1.0000E+05 -2.9627E+03   1.0296E+05  0.000E+00  0.000E+00  0.000E+00  4.84073E+01  1.459E-01  2.000E+01  2.000E+04 -1.481E-01
   1   13    2     1     2    1.0296E+05 -4.9495E+03   1.0791E+05  0.000E+00  0.000E+00  0.000E+00  4.79334E+01  1.493E-01  2.000E+01  2.000E+04 -2.475E-01
   1   14    3     1     3    1.0791E+05 -3.9743E+03   1.1189E+05  0.000E+00  0.000E+00  0.000E+00  4.74599E+01  1.531E-01  2.000E+01  2.000E+04 -1.987E-01
   1   15    4     1     4    1.1189E+05 -3.8554E+03   1.1574E+05  0.000E+00  0.000E+00  0.000E+00  4.69859E+01  1.563E-01  2.000E+01  2.000E+04 -1.928E-01
   1   16    5     1     5    1.1574E+05 -4.1358E+03   1.1988E+05  0.000E+00  0.000E+00  0.000E+00  4.65119E+01  1.596E-01  2.000E+01  2.000E+04 -2.068E-01
   1   16    6     1     6    1.1988E+05 -3.2718E+03   1.2315E+05  0.000E+00  0.000E+00  0.000E+00  4.60376E+01  1.626E-01  2.000E+01  2.000E+04 -1.636E-01
   1   16    7     1     7    1.2315E+05 -3.3283E+03   1.2648E+05  0.000E+00  0.000E+00  0.000E+00  4.55630E+01  1.652E-01  2.000E+01  2.000E+04 -1.664E-01
   1   16    8     1     8    1.2648E+05 -3.3440E+03   1.2982E+05  0.000E+00  0.000E+00  0.000E+00  4.50883E+01  1.679E-01  2.000E+01  2.000E+04 -1.672E-01
   1   16    9     1     9    1.2982E+05 -3.3013E+03   1.3312E+05  0.000E+00  0.000E+00  0.000E+00  4.46136E+01  1.705E-01  2.000E+01  2.000E+04 -1.651E-01
   1   16   10     1    10    1.3312E+05 -3.1936E+03   1.3632E+05  0.000E+00  0.000E+00  0.000E+00  4.41389E+01  1.730E-01  2.000E+01  2.000E+04 -1.597E-01
   1   16   11     1    11    1.3632E+05 -3.0166E+03   1.3933E+05  0.000E+00  0.000E+00  0.000E+00  4.36640E+01  1.754E-01  2.000E+01  2.000E+04 -1.508E-01
   1   16   12     1    12    1.3933E+05 -3.4036E+03   1.4274E+05  0.000E+00  0.000E+00  0.000E+00  4.31892E+01  1.778E-01  2.000E+01  2.000E+04 -1.702E-01
   1   15   13     1    13    1.4274E+05 -3.0735E+03   1.4581E+05  0.000E+00  0.000E+00  0.000E+00  4.27143E+01  1.802E-01  2.000E+01  2.000E+04 -1.537E-01
   1   14   14     1    14    1.4581E+05 -3.1287E+03   1.4894E+05  0.000E+00  0.000E+00  0.000E+00  4.22394E+01  1.825E-01  2.000E+01  2.000E+04 -1.564E-01
   1   13   15     1    15    1.4894E+05 -3.5665E+03   1.5251E+05  0.000E+00  0.000E+00  0.000E+00  4.17646E+01  1.850E-01  2.000E+01  2.000E+04 -1.783E-01
   1   12   16     1    16    1.5251E+05 -5.2223E+03   1.5773E+05  0.000E+00  0.000E+00  0.000E+00  4.12905E+01  1.882E-01  2.000E+01  2.000E+04 -2.611E-01
   1   12   17     1    17    1.5773E+05 -3.1225E+03   1.6085E+05  0.000E+00  0.000E+00  0.000E+00  4.08163E+01  1.913E-01  2.000E+01  2.000E+04 -1.561E-01
   1   12   18     1    18    1.6085E+05 -2.9083E+03   1.6376E+05  0.000E+00  0.000E+00  0.000E+00  4.03412E+01  1.934E-01  2.000E+01  2.000E+04 -1.454E-01
   1   12   19     1    19    1.6376E+05 -4.0770E+03   1.6784E+05  0.000E+00  0.000E+00  0.000E+00  3.98664E+01  1.959E-01  2.000E+01  2.000E+04 -2.038E-01
   1   13   20     1    20    1.6784E+05 -1.5028E+03   1.6934E+05  0.000E+00  0.000E+00  0.000E+00  3.93911E+01  1.979E-01  2.000E+01  2.000E+04 -7.514E-02
   1   14   21     1    21    1.6934E+05  9.6579E+02   1.6837E+05  0.000E+00  0.000E+00  0.000E+00  3.89140E+01  1.981E-01  2.000E+01  2.000E+04  4.829E-02
   1   14   22     1    22    1.6837E+05  5.6117E+03   1.6276E+05  0.000E+00  0.000E+00  0.000E+00  3.84344E+01  1.958E-01  2.000E+01  2.000E+04  2.806E-01
   1    9   30     2     1    5.0000E+04 -2.7956E+03   5.2796E+04  0.000E+00  0.000E+00  0.000E+00  4.02428E+01  1.178E-01  2.000E+01  2.000E+04 -1.398E-01
   1    9   29     2     2    5.2796E+04 -3.1284E+03   5.5924E+04  0.000E+00  0.000E+00  0.000E+00  3.99968E+01  1.218E-01  2.000E+01  2.000E+04 -1.564E-01
   1    9   28     2     3    5.5924E+04 -3.5120E+03   5.9436E+04  0.000E+00  0.000E+00  0.000E+00  3.97512E+01  1.262E-01  2.000E+01  2.000E+04 -1.756E-01
   1    9   27     2     4    5.9436E+04 -6.2623E+03   6.5698E+04  0.000E+00  0.000E+00  0.000E+00  3.95076E+01  1.326E-01  2.000E+01  2.000E+04 -3.131E-01
   1   10   26     2     5    6.5698E+04 -3.8855E+03   6.9584E+04  0.000E+00  0.000E+00  0.000E+00  3.92639E+01  1.389E-01  2.000E+01  2.000E+04 -1.943E-01
   1   11   25     2     6    6.9584E+04 -2.8327E+03   7.2416E+04  0.000E+00  0.000E+00  0.000E+00  3.90180E+01  1.430E-01  2.000E+01  2.000E+04 -1.416E-01
   1   12   24     2     7    7.2416E+04 -1.9684E+03   7.4385E+04  0.000E+00  0.000E+00  0.000E+00  3.87709E+01  1.459E-01  2.000E+01  2.000E+04 -9.842E-02
   1   13   23     2     8    7.4385E+04 -1.0945E+03   7.5479E+04  0.000E+00  0.000E+00  0.000E+00  3.85227E+01  1.477E-01  2.000E+01  2.000E+04 -5.473E-02
   1   14   22     2     9    7.5479E+04  2.3629E+03   7.3117E+04  0.000E+00  0.000E+00  0.000E+00  3.82719E+01  1.469E-01  2.000E+01  2.000E+04  1.181E-01
   1   14   22     3     1    2.3588E+05 -7.9073E+03   2.4378E+05  0.000E+00  0.000E+00  0.000E+00  3.77584E+01  2.029E-01  2.000E+01  2.000E+04 -3.954E-01
   1   15   23     3     2    2.4378E+05  2.4137E+03   2.4137E+05  0.000E+00  0.000E+00  0.000E+00  3.68709E+01  2.043E-01  2.000E+01  2.000E+04  1.207E-01
   1   15   24     3     3    2.4137E+05  1.3653E+03   2.4001E+05  0.000E+00  0.000E+00  0.000E+00  3.59811E+01  2.033E-01  2.000E+01  2.000E+04  6.827E-02
   1   15   25     3     4    2.4001E+05  7.1975E+02   2.3929E+05  0.000E+00  0.000E+00  0.000E+00  3.50917E+01  2.028E-01  2.000E+01  2.000E+04  3.599E-02
   1   15   26     3     5    2.3929E+05 -6.3575E+02   2.3992E+05  0.000E+00  0.000E+00  0.000E+00  3.42028E+01  2.028E-01  2.000E+01  2.000E+04 -3.179E-02
   1   16   27     3     6    2.3992E+05  2.0988E+02   2.3971E+05  0.000E+00  0.000E+00  0.000E+00  3.33140E+01  2.029E-01  2.000E+01  2.000E+04  1.049E-02
   1   17   28     3     7    2.3971E+05 -5.1114E+02   2.4022E+05  0.000E+00  0.000E+00  0.000E+00  3.24252E+01  2.030E-01  2.000E+01  2.000E+04 -2.556E-02
   1   18   29     3     8    2.4022E+05 -2.3553E+03   2.4258E+05  0.000E+00  0.000E+00  0.000E+00  3.15370E+01  2.037E-01  2.000E+01  2.000E+04 -1.178E-01
   1   18   30     3     9    2.4258E+05 -3.4474E+03   2.4603E+05  0.000E+00  0.000E+00  0.000E+00  3.06496E+01  2.051E-01  2.000E+01  2.000E+04 -1.724E-01



1
              HEAD IN LAYER   1 AT END OF TIME STEP   1 IN STRESS PERIOD    4
  ---------------------------------------------------------------------------

          1      2      3      4      5      6      7      8      9     10
         11     12     13     14     15     16     17     18     19     20
         21     22     23     24     25     26     27     28     29     30
 .........................................................................
   1  ****** ****** ****** ****** ****** ****** ****** ****** ****** ******
      ****** ****** ****** ****** ****** ****** ****** ****** ****** ******
      ****** ****** ****** ****** ****** ****** ****** ****** ****** ******
   2  ****** ****** ****** ****** ****** ****** ****** ****** ****** ******
      ****** ****** ****** ****** ****** ****** ****** ****** ****** ******
      ****** ****** ****** ****** ****** ****** ****** ****** ****** ******
   3  ****** ****** ****** ****** ****** ****** ****** ****** ****** ******
      ****** ****** ****** ****** ****** ****** ****** ****** ****** ******
      ****** ****** ****** ****** ****** ****** ****** ****** ****** ******
   4  ****** ****** ****** ****** ****** ****** ****** ****** ****** ******
      ****** ****** ****** ****** ****** ****** ****** ****** ****** ******
      ****** ****** ****** ****** ****** ****** ****** ****** ****** ******
   5  ****** ****** ****** ****** ****** ****** ****** ****** ****** ******
      ****** ****** ****** ****** ****** ****** ****** ****** ****** ******
      ****** ****** ****** ****** ****** ****** ****** ****** ****** ******
   6  ****** ****** ****** ****** ****** ****** ****** ****** ****** ******
      ****** ****** ****** ****** ****** ****** ****** ****** ****** ******
      ****** ****** ****** ****** ****** ****** ****** ****** ****** ******
   7  ****** ****** ****** ****** ****** ****** ****** ****** ****** ******
      ****** ****** ****** ****** ****** ****** ****** ****** ****** ******
      ****** ****** ****** ****** ****** ****** ****** ****** ****** ******
   8  ****** ****** ****** ****** ****** ****** ****** ****** ****** ******
      ****** ****** ****** ****** ****** ****** ****** ****** ****** ******
      ****** ****** ****** ****** ****** ****** ****** ****** ****** ******
   9  ****** ****** ****** ****** ****** ****** ****** ****** ****** ******
      ****** ****** ****** ****** ****** ****** ****** ****** ****** ******
      ****** ****** ****** ****** ****** ****** ****** ****** ****** ******
  10  ****** ****** ****** ****** ****** ****** ****** ****** ****** ******
      ****** ****** ****** ****** ****** ****** ****** ****** ****** ******
      ****** ****** ****** ****** ****** ****** ****** ****** ****** ******
  11  ****** ****** ****** ****** ****** ****** ****** ****** ****** ******
      ****** ****** ****** ****** ****** ****** ****** ****** ****** ******
      ****** ****** ****** ****** ****** ****** ****** ****** ****** ******
  12  ****** ****** ****** ****** ****** ****** ****** ****** ****** ******
      ****** ****** ****** ****** ****** ****** ****** ****** ****** ******
      ****** ****** ****** ****** ****** ****** ****** ****** ****** ******
  13  ****** ****** ****** ****** ****** ****** ****** ****** ****** ******
      ****** ****** ****** ****** ****** ****** ****** ****** ****** ******
      ****** ****** ****** ****** ****** ****** ****** ****** ****** ******
  14  ****** ****** ****** ****** ****** ****** ****** ****** ****** ******
      ****** ****** ****** ****** ****** ****** ****** ****** ****** ******
      ****** ****** ****** ****** ****** ****** ****** ****** ****** ******
  15  ****** ****** ****** ****** ****** ****** ****** ****** ****** ******
      ****** ****** ****** ****** ****** ****** ****** ****** ****** ******
      ****** ****** ****** ****** ****** ****** ****** ****** ****** ******
  16  ****** ****** ****** ****** ****** ****** ****** ****** ****** ******
      ****** ****** ****** ****** ****** ****** ****** ****** ****** ******
      ****** ****** ****** ****** ****** ****** ****** ****** ****** ******
  17  ****** ****** ****** ****** ****** ****** ****** ****** ****** ******
      ****** ****** ****** ****** ****** ****** ****** ****** ****** ******
      ****** ****** ****** ****** ****** ****** ****** ****** ****** ******
  18  ****** ****** ****** ****** ****** ****** ****** ****** ****** ******
      ****** ****** ****** ****** ****** ****** ****** ****** ****** ******
      ****** ****** ****** ****** ****** ****** ****** ****** ****** ******
  19  ****** ****** ****** ****** ****** ****** ****** ****** ****** ******
      ****** ****** ****** ****** ****** ****** ****** ****** ****** ******
      ****** ****** ****** ****** ****** ****** ****** ****** ****** ******
  20  ****** ****** ****** ****** ****** ****** ****** ****** ****** ******
      ****** ****** ****** ****** ****** ****** ****** ****** ****** ******
      ****** ****** ****** ****** ****** ****** ****** ****** ****** ******
  21  ****** ****** ****** ****** ****** ****** ****** ****** ****** ******
      ****** ****** ****** ****** ****** ****** ****** ****** ****** ******
      ****** ****** ****** ****** ****** ****** ****** ****** ****** ******
  22  ****** ****** ****** ****** ****** ****** ****** ****** ****** ******
      ****** ****** ****** ****** ****** ****** ****** ****** ****** ******
      ****** ****** ****** ****** ****** ****** ****** ****** ****** ******
  23  ****** ****** ****** ****** ****** ****** ****** ****** ****** ******
      ****** ****** ****** ****** ****** ****** ****** ****** ****** ******
      ****** ****** ****** ****** ****** ****** ****** ****** ****** ******
  24  ****** ****** ****** ****** ****** ****** ****** ****** ****** ******
      ****** ****** ****** ****** ****** ****** ****** ****** ****** ******
      ****** ****** ****** ****** ****** ****** ****** ****** ****** ******
  25  ****** ****** ****** ****** ****** ****** ****** ****** ****** ******
      ****** ****** ****** ****** ****** ****** ****** ****** ****** ******
      ****** ****** ****** ****** ****** ****** ****** ****** ****** ******

 HEAD WILL BE SAVED ON UNIT   51 AT END OF TIME STEP    1, STRESS PERIOD    4
1
  VOLUMETRIC BUDGET FOR ENTIRE MODEL AT END OF TIME STEP    1, STRESS PERIOD   4
  ------------------------------------------------------------------------------

     CUMULATIVE VOLUMES      L**3       RATES FOR THIS TIME STEP      L**3/T
     ------------------                 ------------------------

           IN:                                      IN:
           ---                                      ---
             STORAGE =    23662613.4943               STORAGE =        1744.3139
       CONSTANT HEAD =    46203665.7663         CONSTANT HEAD =      143281.4781
               WELLS =           0.0000                 WELLS =           0.0000
            RECHARGE =     8804400.0000              RECHARGE =       27600.0000
      STREAM LEAKAGE =     3879354.8716        STREAM LEAKAGE =       13649.0375

            TOTAL IN =    82550034.1322              TOTAL IN =      186274.8295

          OUT:                                     OUT:
          ----                                     ----
             STORAGE =       22911.5153               STORAGE =         251.7749
       CONSTANT HEAD =           0.0000         CONSTANT HEAD =           0.0000
               WELLS =    27867042.2420                 WELLS =       76348.0609
            RECHARGE =           0.0000              RECHARGE =           0.0000
      STREAM LEAKAGE =    54660081.0170        STREAM LEAKAGE =      109674.9918

           TOTAL OUT =    82550034.7743             TOTAL OUT =      186274.8276

            IN - OUT =          -0.6421              IN - OUT =       1.8846E-03

 PERCENT DISCREPANCY =          -0.00     PERCENT DISCREPANCY =           0.00






         TIME SUMMARY AT END OF TIME STEP    1 IN STRESS PERIOD    4
                    SECONDS     MINUTES      HOURS       DAYS        YEARS
                    -----------------------------------------------------------
   TIME STEP LENGTH 7.86240E+06 1.31040E+05  2184.0      91.000     0.24914    
 STRESS PERIOD TIME 7.86240E+06 1.31040E+05  2184.0      91.000     0.24914    
         TOTAL TIME 3.15360E+07 5.25600E+05  8760.0      365.00     0.99932    
1
1
                            STRESS PERIOD NO.    5, LENGTH =   92.00000    
                            -----------------------------------------------

                              NUMBER OF TIME STEPS =     1

                               MULTIPLIER FOR DELT =     1.500

                            INITIAL TIME STEP SIZE =   92.00000    

 WELL NO.  LAYER   ROW   COL   STRESS RATE         
 --------------------------------------------------
      1      1     21     23     -0.1821E+05
      2      1     20     24     -0.1241E+05
      3      1     19     20     -0.2382E+05
      4      1     19     24     -0.2191E+05

      4 WELLS

                 RECHARGE =  5.000000E-04

 REUSING STREAM SEGMENT DATA FROM LAST STRESS PERIOD
 
 SOLVING FOR HEAD 


     6 CALLS TO PCG ROUTINE FOR TIME STEP   1 IN STRESS PERIOD    5
    23 TOTAL ITERATIONS

 OUTPUT CONTROL FOR STRESS PERIOD    5   TIME STEP    1
    SAVE BUDGET
    SAVE HEAD FOR ALL LAYERS
    PRINT HEAD FOR ALL LAYERS
 UBDSV2 SAVING "STREAMFLOW OUT  " ON UNIT  50 AT TIME STEP  1, STRESS PERIOD   5



 STREAM LISTING     PERIOD      5   STEP        1

 LAYER ROW COL. STREAM  RCH.  FLOW INTO     FLOW TO   FLOW OUT OF   OVRLND.     DIRECT     STREAM       STREAM     STREAM     STREAM   STREAMBED  STREAMBED
                SEG.NO.  NO.  STRM. RCH.    AQUIFER    STRM. RCH.    RUNOFF     PRECIP       ET          HEAD       DEPTH      WIDTH   CONDCTNC.   GRADIENT

   1   13    1     1     1    1.0000E+05 -2.7895E+03   1.0279E+05  0.000E+00  0.000E+00  0.000E+00  4.84072E+01  1.459E-01  2.000E+01  2.000E+04 -1.395E-01
   1   13    2     1     2    1.0279E+05 -4.7094E+03   1.0750E+05  0.000E+00  0.000E+00  0.000E+00  4.79332E+01  1.491E-01  2.000E+01  2.000E+04 -2.355E-01
   1   14    3     1     3    1.0750E+05 -3.7505E+03   1.1125E+05  0.000E+00  0.000E+00  0.000E+00  4.74595E+01  1.526E-01  2.000E+01  2.000E+04 -1.875E-01
   1   15    4     1     4    1.1125E+05 -3.6425E+03   1.1489E+05  0.000E+00  0.000E+00  0.000E+00  4.69853E+01  1.557E-01  2.000E+01  2.000E+04 -1.821E-01
   1   16    5     1     5    1.1489E+05 -3.9494E+03   1.1884E+05  0.000E+00  0.000E+00  0.000E+00  4.65111E+01  1.588E-01  2.000E+01  2.000E+04 -1.975E-01
   1   16    6     1     6    1.1884E+05 -3.1182E+03   1.2196E+05  0.000E+00  0.000E+00  0.000E+00  4.60367E+01  1.617E-01  2.000E+01  2.000E+04 -1.559E-01
   1   16    7     1     7    1.2196E+05 -3.1699E+03   1.2513E+05  0.000E+00  0.000E+00  0.000E+00  4.55619E+01  1.642E-01  2.000E+01  2.000E+04 -1.585E-01
   1   16    8     1     8    1.2513E+05 -3.1826E+03   1.2831E+05  0.000E+00  0.000E+00  0.000E+00  4.50872E+01  1.667E-01  2.000E+01  2.000E+04 -1.591E-01
   1   16    9     1     9    1.2831E+05 -3.1387E+03   1.3145E+05  0.000E+00  0.000E+00  0.000E+00  4.46124E+01  1.692E-01  2.000E+01  2.000E+04 -1.569E-01
   1   16   10     1    10    1.3145E+05 -3.0317E+03   1.3448E+05  0.000E+00  0.000E+00  0.000E+00  4.41375E+01  1.716E-01  2.000E+01  2.000E+04 -1.516E-01
   1   16   11     1    11    1.3448E+05 -2.8559E+03   1.3734E+05  0.000E+00  0.000E+00  0.000E+00  4.36625E+01  1.739E-01  2.000E+01  2.000E+04 -1.428E-01
   1   16   12     1    12    1.3734E+05 -3.1924E+03   1.4053E+05  0.000E+00  0.000E+00  0.000E+00  4.31876E+01  1.762E-01  2.000E+01  2.000E+04 -1.596E-01
   1   15   13     1    13    1.4053E+05 -2.8383E+03   1.4337E+05  0.000E+00  0.000E+00  0.000E+00  4.27126E+01  1.785E-01  2.000E+01  2.000E+04 -1.419E-01
   1   14   14     1    14    1.4337E+05 -2.8867E+03   1.4626E+05  0.000E+00  0.000E+00  0.000E+00  4.22375E+01  1.806E-01  2.000E+01  2.000E+04 -1.443E-01
   1   13   15     1    15    1.4626E+05 -3.3282E+03   1.4958E+05  0.000E+00  0.000E+00  0.000E+00  4.17625E+01  1.830E-01  2.000E+01  2.000E+04 -1.664E-01
   1   12   16     1    16    1.4958E+05 -4.9924E+03   1.5458E+05  0.000E+00  0.000E+00  0.000E+00  4.12883E+01  1.860E-01  2.000E+01  2.000E+04 -2.496E-01
   1   12   17     1    17    1.5458E+05 -2.9585E+03   1.5753E+05  0.000E+00  0.000E+00  0.000E+00  4.08139E+01  1.889E-01  2.000E+01  2.000E+04 -1.479E-01
   1   12   18     1    18    1.5753E+05 -2.7501E+03   1.6028E+05  0.000E+00  0.000E+00  0.000E+00  4.03387E+01  1.910E-01  2.000E+01  2.000E+04 -1.375E-01
   1   12   19     1    19    1.6028E+05 -3.8902E+03   1.6418E+05  0.000E+00  0.000E+00  0.000E+00  3.98638E+01  1.934E-01  2.000E+01  2.000E+04 -1.945E-01
   1   13   20     1    20    1.6418E+05 -1.3202E+03   1.6550E+05  0.000E+00  0.000E+00  0.000E+00  3.93884E+01  1.952E-01  2.000E+01  2.000E+04 -6.601E-02
   1   14   21     1    21    1.6550E+05  1.1442E+03   1.6435E+05  0.000E+00  0.000E+00  0.000E+00  3.89112E+01  1.953E-01  2.000E+01  2.000E+04  5.721E-02
   1   14   22     1    22    1.6435E+05  5.6398E+03   1.5871E+05  0.000E+00  0.000E+00  0.000E+00  3.84315E+01  1.929E-01  2.000E+01  2.000E+04  2.820E-01
   1    9   30     2     1    5.0000E+04 -2.6800E+03   5.2680E+04  0.000E+00  0.000E+00  0.000E+00  4.02427E+01  1.177E-01  2.000E+01  2.000E+04 -1.340E-01
   1    9   29     2     2    5.2680E+04 -3.0132E+03   5.5693E+04  0.000E+00  0.000E+00  0.000E+00  3.99966E+01  1.216E-01  2.000E+01  2.000E+04 -1.507E-01
   1    9   28     2     3    5.5693E+04 -3.3961E+03   5.9089E+04  0.000E+00  0.000E+00  0.000E+00  3.97509E+01  1.259E-01  2.000E+01  2.000E+04 -1.698E-01
   1    9   27     2     4    5.9089E+04 -6.1011E+03   6.5190E+04  0.000E+00  0.000E+00  0.000E+00  3.95070E+01  1.320E-01  2.000E+01  2.000E+04 -3.051E-01
   1   10   26     2     5    6.5190E+04 -3.7194E+03   6.8910E+04  0.000E+00  0.000E+00  0.000E+00  3.92632E+01  1.382E-01  2.000E+01  2.000E+04 -1.860E-01
   1   11   25     2     6    6.8910E+04 -2.6730E+03   7.1583E+04  0.000E+00  0.000E+00  0.000E+00  3.90171E+01  1.421E-01  2.000E+01  2.000E+04 -1.336E-01
   1   12   24     2     7    7.1583E+04 -1.8263E+03   7.3409E+04  0.000E+00  0.000E+00  0.000E+00  3.87698E+01  1.448E-01  2.000E+01  2.000E+04 -9.131E-02
   1   13   23     2     8    7.3409E+04 -9.8298E+02   7.4392E+04  0.000E+00  0.000E+00  0.000E+00  3.85215E+01  1.465E-01  2.000E+01  2.000E+04 -4.915E-02
   1   14   22     2     9    7.4392E+04  2.4218E+03   7.1970E+04  0.000E+00  0.000E+00  0.000E+00  3.82706E+01  1.456E-01  2.000E+01  2.000E+04  1.211E-01
   1   14   22     3     1    2.3068E+05 -7.8749E+03   2.3856E+05  0.000E+00  0.000E+00  0.000E+00  3.77558E+01  2.002E-01  2.000E+01  2.000E+04 -3.937E-01
   1   15   23     3     2    2.3856E+05  2.5836E+03   2.3597E+05  0.000E+00  0.000E+00  0.000E+00  3.68682E+01  2.016E-01  2.000E+01  2.000E+04  1.292E-01
   1   15   24     3     3    2.3597E+05  1.4792E+03   2.3449E+05  0.000E+00  0.000E+00  0.000E+00  3.59783E+01  2.005E-01  2.000E+01  2.000E+04  7.396E-02
   1   15   25     3     4    2.3449E+05  8.2774E+02   2.3367E+05  0.000E+00  0.000E+00  0.000E+00  3.50888E+01  1.999E-01  2.000E+01  2.000E+04  4.139E-02
   1   15   26     3     5    2.3367E+05 -5.0847E+02   2.3417E+05  0.000E+00  0.000E+00  0.000E+00  3.41999E+01  1.999E-01  2.000E+01  2.000E+04 -2.542E-02
   1   16   27     3     6    2.3417E+05  3.7847E+02   2.3380E+05  0.000E+00  0.000E+00  0.000E+00  3.33110E+01  1.999E-01  2.000E+01  2.000E+04  1.892E-02
   1   17   28     3     7    2.3380E+05 -3.3735E+02   2.3413E+05  0.000E+00  0.000E+00  0.000E+00  3.24221E+01  1.999E-01  2.000E+01  2.000E+04 -1.687E-02
   1   18   29     3     8    2.3413E+05 -2.1877E+03   2.3632E+05  0.000E+00  0.000E+00  0.000E+00  3.15339E+01  2.005E-01  2.000E+01  2.000E+04 -1.094E-01
   1   18   30     3     9    2.3632E+05 -3.3281E+03   2.3965E+05  0.000E+00  0.000E+00  0.000E+00  3.06464E+01  2.019E-01  2.000E+01  2.000E+04 -1.664E-01



1
              HEAD IN LAYER   1 AT END OF TIME STEP   1 IN STRESS PERIOD    5
  ---------------------------------------------------------------------------

          1      2      3      4      5      6      7      8      9     10
         11     12     13     14     15     16     17     18     19     20
         21     22     23     24     25     26     27     28     29     30
 .........................................................................
   1  ****** ****** ****** ****** ****** ****** ****** ****** ****** ******
      ****** ****** ****** ****** ****** ****** ****** ****** ****** ******
      ****** ****** ****** ****** ****** ****** ****** ****** ****** ******
   2  ****** ****** ****** ****** ****** ****** ****** ****** ****** ******
      ****** ****** ****** ****** ****** ****** ****** ****** ****** ******
      ****** ****** ****** ****** ****** ****** ****** ****** ****** ******
   3  ****** ****** ****** ****** ****** ****** ****** ****** ****** ******
      ****** ****** ****** ****** ****** ****** ****** ****** ****** ******
      ****** ****** ****** ****** ****** ****** ****** ****** ****** ******
   4  ****** ****** ****** ****** ****** ****** ****** ****** ****** ******
      ****** ****** ****** ****** ****** ****** ****** ****** ****** ******
      ****** ****** ****** ****** ****** ****** ****** ****** ****** ******
   5  ****** ****** ****** ****** ****** ****** ****** ****** ****** ******
      ****** ****** ****** ****** ****** ****** ****** ****** ****** ******
      ****** ****** ****** ****** ****** ****** ****** ****** ****** ******
   6  ****** ****** ****** ****** ****** ****** ****** ****** ****** ******
      ****** ****** ****** ****** ****** ****** ****** ****** ****** ******
      ****** ****** ****** ****** ****** ****** ****** ****** ****** ******
   7  ****** ****** ****** ****** ****** ****** ****** ****** ****** ******
      ****** ****** ****** ****** ****** ****** ****** ****** ****** ******
      ****** ****** ****** ****** ****** ****** ****** ****** ****** ******
   8  ****** ****** ****** ****** ****** ****** ****** ****** ****** ******
      ****** ****** ****** ****** ****** ****** ****** ****** ****** ******
      ****** ****** ****** ****** ****** ****** ****** ****** ****** ******
   9  ****** ****** ****** ****** ****** ****** ****** ****** ****** ******
      ****** ****** ****** ****** ****** ****** ****** ****** ****** ******
      ****** ****** ****** ****** ****** ****** ****** ****** ****** ******
  10  ****** ****** ****** ****** ****** ****** ****** ****** ****** ******
      ****** ****** ****** ****** ****** ****** ****** ****** ****** ******
      ****** ****** ****** ****** ****** ****** ****** ****** ****** ******
  11  ****** ****** ****** ****** ****** ****** ****** ****** ****** ******
      ****** ****** ****** ****** ****** ****** ****** ****** ****** ******
      ****** ****** ****** ****** ****** ****** ****** ****** ****** ******
  12  ****** ****** ****** ****** ****** ****** ****** ****** ****** ******
      ****** ****** ****** ****** ****** ****** ****** ****** ****** ******
      ****** ****** ****** ****** ****** ****** ****** ****** ****** ******
  13  ****** ****** ****** ****** ****** ****** ****** ****** ****** ******
      ****** ****** ****** ****** ****** ****** ****** ****** ****** ******
      ****** ****** ****** ****** ****** ****** ****** ****** ****** ******
  14  ****** ****** ****** ****** ****** ****** ****** ****** ****** ******
      ****** ****** ****** ****** ****** ****** ****** ****** ****** ******
      ****** ****** ****** ****** ****** ****** ****** ****** ****** ******
  15  ****** ****** ****** ****** ****** ****** ****** ****** ****** ******
      ****** ****** ****** ****** ****** ****** ****** ****** ****** ******
      ****** ****** ****** ****** ****** ****** ****** ****** ****** ******
  16  ****** ****** ****** ****** ****** ****** ****** ****** ****** ******
      ****** ****** ****** ****** ****** ****** ****** ****** ****** ******
      ****** ****** ****** ****** ****** ****** ****** ****** ****** ******
  17  ****** ****** ****** ****** ****** ****** ****** ****** ****** ******
      ****** ****** ****** ****** ****** ****** ****** ****** ****** ******
      ****** ****** ****** ****** ****** ****** ****** ****** ****** ******
  18  ****** ****** ****** ****** ****** ****** ****** ****** ****** ******
      ****** ****** ****** ****** ****** ****** ****** ****** ****** ******
      ****** ****** ****** ****** ****** ****** ****** ****** ****** ******
  19  ****** ****** ****** ****** ****** ****** ****** ****** ****** ******
      ****** ****** ****** ****** ****** ****** ****** ****** ****** ******
      ****** ****** ****** ****** ****** ****** ****** ****** ****** ******
  20  ****** ****** ****** ****** ****** ****** ****** ****** ****** ******
      ****** ****** ****** ****** ****** ****** ****** ****** ****** ******
      ****** ****** ****** ****** ****** ****** ****** ****** ****** ******
  21  ****** ****** ****** ****** ****** ****** ****** ****** ****** ******
      ****** ****** ****** ****** ****** ****** ****** ****** ****** ******
      ****** ****** ****** ****** ****** ****** ****** ****** ****** ******
  22  ****** ****** ****** ****** ****** ****** ****** ****** ****** ******
      ****** ****** ****** ****** ****** ****** ****** ****** ****** ******
      ****** ****** ****** ****** ****** ****** ****** ****** ****** ******
  23  ****** ****** ****** ****** ****** ****** ****** ****** ****** ******
      ****** ****** ****** ****** ****** ****** ****** ****** ****** ******
      ****** ****** ****** ****** ****** ****** ****** ****** ****** ******
  24  ****** ****** ****** ****** ****** ****** ****** ****** ****** ******
      ****** ****** ****** ****** ****** ****** ****** ****** ****** ******
      ****** ****** ****** ****** ****** ****** ****** ****** ****** ******
  25  ****** ****** ****** ****** ****** ****** ****** ****** ****** ******
      ****** ****** ****** ****** ****** ****** ****** ****** ****** ******
      ****** ****** ****** ****** ****** ****** ****** ****** ****** ******

 HEAD WILL BE SAVED ON UNIT   51 AT END OF TIME STEP    1, STRESS PERIOD    5
1
  VOLUMETRIC BUDGET FOR ENTIRE MODEL AT END OF TIME STEP    1, STRESS PERIOD   5
  ------------------------------------------------------------------------------

     CUMULATIVE VOLUMES      L**3       RATES FOR THIS TIME STEP      L**3/T
     ------------------                 ------------------------

           IN:                                      IN:
           ---                                      ---
             STORAGE =    24078545.0032               STORAGE =        4520.9947
       CONSTANT HEAD =    59789875.1499         CONSTANT HEAD =      147676.1890
               WELLS =           0.0000                 WELLS =           0.0000
            RECHARGE =    10074000.0000              RECHARGE =       13800.0000
      STREAM LEAKAGE =     5211039.9295        STREAM LEAKAGE =       14474.8376

            TOTAL IN =    99153460.0826              TOTAL IN =      180472.0212

          OUT:                                     OUT:
          ----                                     ----
             STORAGE =       22911.5153               STORAGE =           0.0000
       CONSTANT HEAD =           0.0000         CONSTANT HEAD =           0.0000
               WELLS =    34891063.8482                 WELLS =       76348.0609
            RECHARGE =           0.0000              RECHARGE =           0.0000
      STREAM LEAKAGE =    64239485.4308        STREAM LEAKAGE =      104123.9610

           TOTAL OUT =    99153460.7943             TOTAL OUT =      180472.0220

            IN - OUT =          -0.7117              IN - OUT =      -7.5677E-04

 PERCENT DISCREPANCY =          -0.00     PERCENT DISCREPANCY =          -0.00






         TIME SUMMARY AT END OF TIME STEP    1 IN STRESS PERIOD    5
                    SECONDS     MINUTES      HOURS       DAYS        YEARS
                    -----------------------------------------------------------
   TIME STEP LENGTH 7.94880E+06 1.32480E+05  2208.0      92.000     0.25188    
 STRESS PERIOD TIME 7.94880E+06 1.32480E+05  2208.0      92.000     0.25188    
         TOTAL TIME 3.94848E+07 6.58080E+05  10968.      457.00      1.2512    
1
1
                            STRESS PERIOD NO.    6, LENGTH =   91.00000    
                            -----------------------------------------------

                              NUMBER OF TIME STEPS =     1

                               MULTIPLIER FOR DELT =     1.500

                            INITIAL TIME STEP SIZE =   91.00000    

 WELL NO.  LAYER   ROW   COL   STRESS RATE         
 --------------------------------------------------
      1      1     21     23     -0.1821E+05
      2      1     20     24     -0.1241E+05
      3      1     19     20     -0.2382E+05
      4      1     19     24     -0.2191E+05

      4 WELLS

                 RECHARGE =  2.000000E-03

 REUSING STREAM SEGMENT DATA FROM LAST STRESS PERIOD
 
 SOLVING FOR HEAD 


     7 CALLS TO PCG ROUTINE FOR TIME STEP   1 IN STRESS PERIOD    6
    26 TOTAL ITERATIONS

 OUTPUT CONTROL FOR STRESS PERIOD    6   TIME STEP    1
    SAVE BUDGET
    SAVE HEAD FOR ALL LAYERS
    PRINT HEAD FOR ALL LAYERS
 UBDSV2 SAVING "STREAMFLOW OUT  " ON UNIT  50 AT TIME STEP  1, STRESS PERIOD   6



 STREAM LISTING     PERIOD      6   STEP        1

 LAYER ROW COL. STREAM  RCH.  FLOW INTO     FLOW TO   FLOW OUT OF   OVRLND.     DIRECT     STREAM       STREAM     STREAM     STREAM   STREAMBED  STREAMBED
                SEG.NO.  NO.  STRM. RCH.    AQUIFER    STRM. RCH.    RUNOFF     PRECIP       ET          HEAD       DEPTH      WIDTH   CONDCTNC.   GRADIENT

   1   13    1     1     1    1.0000E+05 -3.1891E+03   1.0319E+05  0.000E+00  0.000E+00  0.000E+00  4.84074E+01  1.460E-01  2.000E+01  2.000E+04 -1.595E-01
   1   13    2     1     2    1.0319E+05 -5.2351E+03   1.0842E+05  0.000E+00  0.000E+00  0.000E+00  4.79337E+01  1.496E-01  2.000E+01  2.000E+04 -2.618E-01
   1   14    3     1     3    1.0842E+05 -4.2899E+03   1.1271E+05  0.000E+00  0.000E+00  0.000E+00  4.74605E+01  1.536E-01  2.000E+01  2.000E+04 -2.145E-01
   1   15    4     1     4    1.1271E+05 -4.1792E+03   1.1689E+05  0.000E+00  0.000E+00  0.000E+00  4.69867E+01  1.571E-01  2.000E+01  2.000E+04 -2.090E-01
   1   16    5     1     5    1.1689E+05 -4.4475E+03   1.2134E+05  0.000E+00  0.000E+00  0.000E+00  4.65129E+01  1.607E-01  2.000E+01  2.000E+04 -2.224E-01
   1   16    6     1     6    1.2134E+05 -3.5098E+03   1.2485E+05  0.000E+00  0.000E+00  0.000E+00  4.60389E+01  1.639E-01  2.000E+01  2.000E+04 -1.755E-01
   1   16    7     1     7    1.2485E+05 -3.5669E+03   1.2842E+05  0.000E+00  0.000E+00  0.000E+00  4.55644E+01  1.667E-01  2.000E+01  2.000E+04 -1.783E-01
   1   16    8     1     8    1.2842E+05 -3.5827E+03   1.3200E+05  0.000E+00  0.000E+00  0.000E+00  4.50899E+01  1.695E-01  2.000E+01  2.000E+04 -1.791E-01
   1   16    9     1     9    1.3200E+05 -3.5384E+03   1.3554E+05  0.000E+00  0.000E+00  0.000E+00  4.46154E+01  1.722E-01  2.000E+01  2.000E+04 -1.769E-01
   1   16   10     1    10    1.3554E+05 -3.4275E+03   1.3897E+05  0.000E+00  0.000E+00  0.000E+00  4.41408E+01  1.749E-01  2.000E+01  2.000E+04 -1.714E-01
   1   16   11     1    11    1.3897E+05 -3.2461E+03   1.4221E+05  0.000E+00  0.000E+00  0.000E+00  4.36661E+01  1.775E-01  2.000E+01  2.000E+04 -1.623E-01
   1   16   12     1    12    1.4221E+05 -3.6930E+03   1.4591E+05  0.000E+00  0.000E+00  0.000E+00  4.31914E+01  1.801E-01  2.000E+01  2.000E+04 -1.846E-01
   1   15   13     1    13    1.4591E+05 -3.3817E+03   1.4929E+05  0.000E+00  0.000E+00  0.000E+00  4.27168E+01  1.827E-01  2.000E+01  2.000E+04 -1.691E-01
   1   14   14     1    14    1.4929E+05 -3.4398E+03   1.5273E+05  0.000E+00  0.000E+00  0.000E+00  4.22421E+01  1.852E-01  2.000E+01  2.000E+04 -1.720E-01
   1   13   15     1    15    1.5273E+05 -3.8724E+03   1.5660E+05  0.000E+00  0.000E+00  0.000E+00  4.17675E+01  1.879E-01  2.000E+01  2.000E+04 -1.936E-01
   1   12   16     1    16    1.5660E+05 -5.5135E+03   1.6211E+05  0.000E+00  0.000E+00  0.000E+00  4.12936E+01  1.913E-01  2.000E+01  2.000E+04 -2.757E-01
   1   12   17     1    17    1.6211E+05 -3.3476E+03   1.6546E+05  0.000E+00  0.000E+00  0.000E+00  4.08195E+01  1.945E-01  2.000E+01  2.000E+04 -1.674E-01
   1   12   18     1    18    1.6546E+05 -3.1331E+03   1.6859E+05  0.000E+00  0.000E+00  0.000E+00  4.03445E+01  1.968E-01  2.000E+01  2.000E+04 -1.567E-01
   1   12   19     1    19    1.6859E+05 -4.3585E+03   1.7295E+05  0.000E+00  0.000E+00  0.000E+00  3.98699E+01  1.994E-01  2.000E+01  2.000E+04 -2.179E-01
   1   13   20     1    20    1.7295E+05 -1.7760E+03   1.7473E+05  0.000E+00  0.000E+00  0.000E+00  3.93947E+01  2.016E-01  2.000E+01  2.000E+04 -8.880E-02
   1   14   21     1    21    1.7473E+05  7.2739E+02   1.7400E+05  0.000E+00  0.000E+00  0.000E+00  3.89178E+01  2.019E-01  2.000E+01  2.000E+04  3.637E-02
   1   14   22     1    22    1.7400E+05  5.5607E+03   1.6844E+05  0.000E+00  0.000E+00  0.000E+00  3.84384E+01  1.997E-01  2.000E+01  2.000E+04  2.780E-01
   1    9   30     2     1    5.0000E+04 -3.0371E+03   5.3037E+04  0.000E+00  0.000E+00  0.000E+00  4.02430E+01  1.180E-01  2.000E+01  2.000E+04 -1.519E-01
   1    9   29     2     2    5.3037E+04 -3.3674E+03   5.6405E+04  0.000E+00  0.000E+00  0.000E+00  3.99973E+01  1.223E-01  2.000E+01  2.000E+04 -1.684E-01
   1    9   28     2     3    5.6405E+04 -3.7481E+03   6.0153E+04  0.000E+00  0.000E+00  0.000E+00  3.97520E+01  1.270E-01  2.000E+01  2.000E+04 -1.874E-01
   1    9   27     2     4    6.0153E+04 -6.5707E+03   6.6723E+04  0.000E+00  0.000E+00  0.000E+00  3.95087E+01  1.337E-01  2.000E+01  2.000E+04 -3.285E-01
   1   10   26     2     5    6.6723E+04 -4.2054E+03   7.0929E+04  0.000E+00  0.000E+00  0.000E+00  3.92654E+01  1.404E-01  2.000E+01  2.000E+04 -2.103E-01
   1   11   25     2     6    7.0929E+04 -3.1379E+03   7.4067E+04  0.000E+00  0.000E+00  0.000E+00  3.90198E+01  1.448E-01  2.000E+01  2.000E+04 -1.569E-01
   1   12   24     2     7    7.4067E+04 -2.2373E+03   7.6304E+04  0.000E+00  0.000E+00  0.000E+00  3.87730E+01  1.480E-01  2.000E+01  2.000E+04 -1.119E-01
   1   13   23     2     8    7.6304E+04 -1.3035E+03   7.7607E+04  0.000E+00  0.000E+00  0.000E+00  3.85251E+01  1.501E-01  2.000E+01  2.000E+04 -6.518E-02
   1   14   22     2     9    7.7607E+04  2.2833E+03   7.5324E+04  0.000E+00  0.000E+00  0.000E+00  3.82745E+01  1.495E-01  2.000E+01  2.000E+04  1.142E-01
   1   14   22     3     1    2.4376E+05 -7.9582E+03   2.5172E+05  0.000E+00  0.000E+00  0.000E+00  3.77624E+01  2.069E-01  2.000E+01  2.000E+04 -3.979E-01
   1   15   23     3     2    2.5172E+05  2.1953E+03   2.4953E+05  0.000E+00  0.000E+00  0.000E+00  3.68750E+01  2.083E-01  2.000E+01  2.000E+04  1.098E-01
   1   15   24     3     3    2.4953E+05  1.1965E+03   2.4833E+05  0.000E+00  0.000E+00  0.000E+00  3.59852E+01  2.075E-01  2.000E+01  2.000E+04  5.982E-02
   1   15   25     3     4    2.4833E+05  5.4311E+02   2.4779E+05  0.000E+00  0.000E+00  0.000E+00  3.50959E+01  2.070E-01  2.000E+01  2.000E+04  2.716E-02
   1   15   26     3     5    2.4779E+05 -8.7751E+02   2.4866E+05  0.000E+00  0.000E+00  0.000E+00  3.42071E+01  2.071E-01  2.000E+01  2.000E+04 -4.388E-02
   1   16   27     3     6    2.4866E+05 -8.2749E+01   2.4875E+05  0.000E+00  0.000E+00  0.000E+00  3.33185E+01  2.074E-01  2.000E+01  2.000E+04 -4.137E-03
   1   17   28     3     7    2.4875E+05 -8.0781E+02   2.4956E+05  0.000E+00  0.000E+00  0.000E+00  3.24298E+01  2.076E-01  2.000E+01  2.000E+04 -4.039E-02
   1   18   29     3     8    2.4956E+05 -2.6281E+03   2.5218E+05  0.000E+00  0.000E+00  0.000E+00  3.15418E+01  2.084E-01  2.000E+01  2.000E+04 -1.314E-01
   1   18   30     3     9    2.5218E+05 -3.6617E+03   2.5584E+05  0.000E+00  0.000E+00  0.000E+00  3.06544E+01  2.100E-01  2.000E+01  2.000E+04 -1.831E-01



1
              HEAD IN LAYER   1 AT END OF TIME STEP   1 IN STRESS PERIOD    6
  ---------------------------------------------------------------------------

          1      2      3      4      5      6      7      8      9     10
         11     12     13     14     15     16     17     18     19     20
         21     22     23     24     25     26     27     28     29     30
 .........................................................................
   1  ****** ****** ****** ****** ****** ****** ****** ****** ****** ******
      ****** ****** ****** ****** ****** ****** ****** ****** ****** ******
      ****** ****** ****** ****** ****** ****** ****** ****** ****** ******
   2  ****** ****** ****** ****** ****** ****** ****** ****** ****** ******
      ****** ****** ****** ****** ****** ****** ****** ****** ****** ******
      ****** ****** ****** ****** ****** ****** ****** ****** ****** ******
   3  ****** ****** ****** ****** ****** ****** ****** ****** ****** ******
      ****** ****** ****** ****** ****** ****** ****** ****** ****** ******
      ****** ****** ****** ****** ****** ****** ****** ****** ****** ******
   4  ****** ****** ****** ****** ****** ****** ****** ****** ****** ******
      ****** ****** ****** ****** ****** ****** ****** ****** ****** ******
      ****** ****** ****** ****** ****** ****** ****** ****** ****** ******
   5  ****** ****** ****** ****** ****** ****** ****** ****** ****** ******
      ****** ****** ****** ****** ****** ****** ****** ****** ****** ******
      ****** ****** ****** ****** ****** ****** ****** ****** ****** ******
   6  ****** ****** ****** ****** ****** ****** ****** ****** ****** ******
      ****** ****** ****** ****** ****** ****** ****** ****** ****** ******
      ****** ****** ****** ****** ****** ****** ****** ****** ****** ******
   7  ****** ****** ****** ****** ****** ****** ****** ****** ****** ******
      ****** ****** ****** ****** ****** ****** ****** ****** ****** ******
      ****** ****** ****** ****** ****** ****** ****** ****** ****** ******
   8  ****** ****** ****** ****** ****** ****** ****** ****** ****** ******
      ****** ****** ****** ****** ****** ****** ****** ****** ****** ******
      ****** ****** ****** ****** ****** ****** ****** ****** ****** ******
   9  ****** ****** ****** ****** ****** ****** ****** ****** ****** ******
      ****** ****** ****** ****** ****** ****** ****** ****** ****** ******
      ****** ****** ****** ****** ****** ****** ****** ****** ****** ******
  10  ****** ****** ****** ****** ****** ****** ****** ****** ****** ******
      ****** ****** ****** ****** ****** ****** ****** ****** ****** ******
      ****** ****** ****** ****** ****** ****** ****** ****** ****** ******
  11  ****** ****** ****** ****** ****** ****** ****** ****** ****** ******
      ****** ****** ****** ****** ****** ****** ****** ****** ****** ******
      ****** ****** ****** ****** ****** ****** ****** ****** ****** ******
  12  ****** ****** ****** ****** ****** ****** ****** ****** ****** ******
      ****** ****** ****** ****** ****** ****** ****** ****** ****** ******
      ****** ****** ****** ****** ****** ****** ****** ****** ****** ******
  13  ****** ****** ****** ****** ****** ****** ****** ****** ****** ******
      ****** ****** ****** ****** ****** ****** ****** ****** ****** ******
      ****** ****** ****** ****** ****** ****** ****** ****** ****** ******
  14  ****** ****** ****** ****** ****** ****** ****** ****** ****** ******
      ****** ****** ****** ****** ****** ****** ****** ****** ****** ******
      ****** ****** ****** ****** ****** ****** ****** ****** ****** ******
  15  ****** ****** ****** ****** ****** ****** ****** ****** ****** ******
      ****** ****** ****** ****** ****** ****** ****** ****** ****** ******
      ****** ****** ****** ****** ****** ****** ****** ****** ****** ******
  16  ****** ****** ****** ****** ****** ****** ****** ****** ****** ******
      ****** ****** ****** ****** ****** ****** ****** ****** ****** ******
      ****** ****** ****** ****** ****** ****** ****** ****** ****** ******
  17  ****** ****** ****** ****** ****** ****** ****** ****** ****** ******
      ****** ****** ****** ****** ****** ****** ****** ****** ****** ******
      ****** ****** ****** ****** ****** ****** ****** ****** ****** ******
  18  ****** ****** ****** ****** ****** ****** ****** ****** ****** ******
      ****** ****** ****** ****** ****** ****** ****** ****** ****** ******
      ****** ****** ****** ****** ****** ****** ****** ****** ****** ******
  19  ****** ****** ****** ****** ****** ****** ****** ****** ****** ******
      ****** ****** ****** ****** ****** ****** ****** ****** ****** ******
      ****** ****** ****** ****** ****** ****** ****** ****** ****** ******
  20  ****** ****** ****** ****** ****** ****** ****** ****** ****** ******
      ****** ****** ****** ****** ****** ****** ****** ****** ****** ******
      ****** ****** ****** ****** ****** ****** ****** ****** ****** ******
  21  ****** ****** ****** ****** ****** ****** ****** ****** ****** ******
      ****** ****** ****** ****** ****** ****** ****** ****** ****** ******
      ****** ****** ****** ****** ****** ****** ****** ****** ****** ******
  22  ****** ****** ****** ****** ****** ****** ****** ****** ****** ******
      ****** ****** ****** ****** ****** ****** ****** ****** ****** ******
      ****** ****** ****** ****** ****** ****** ****** ****** ****** ******
  23  ****** ****** ****** ****** ****** ****** ****** ****** ****** ******
      ****** ****** ****** ****** ****** ****** ****** ****** ****** ******
      ****** ****** ****** ****** ****** ****** ****** ****** ****** ******
  24  ****** ****** ****** ****** ****** ****** ****** ****** ****** ******
      ****** ****** ****** ****** ****** ****** ****** ****** ****** ******
      ****** ****** ****** ****** ****** ****** ****** ****** ****** ******
  25  ****** ****** ****** ****** ****** ****** ****** ****** ****** ******
      ****** ****** ****** ****** ****** ****** ****** ****** ****** ******
      ****** ****** ****** ****** ****** ****** ****** ****** ****** ******

 HEAD WILL BE SAVED ON UNIT   51 AT END OF TIME STEP    1, STRESS PERIOD    6
1
  VOLUMETRIC BUDGET FOR ENTIRE MODEL AT END OF TIME STEP    1, STRESS PERIOD   6
  ------------------------------------------------------------------------------

     CUMULATIVE VOLUMES      L**3       RATES FOR THIS TIME STEP      L**3/T
     ------------------                 ------------------------

           IN:                                      IN:
           ---                                      ---
             STORAGE =    24078545.0032               STORAGE =           0.0000
       CONSTANT HEAD =    72262847.8723         CONSTANT HEAD =      137065.6343
               WELLS =           0.0000                 WELLS =           0.0000
            RECHARGE =    15097200.0000              RECHARGE =       55200.0000
      STREAM LEAKAGE =     6349113.7255        STREAM LEAKAGE =       12506.3055

            TOTAL IN =   117787706.6010              TOTAL IN =      204771.9398

          OUT:                                     OUT:
          ----                                     ----
             STORAGE =      939520.2023               STORAGE =       10072.6229
       CONSTANT HEAD =           0.0000         CONSTANT HEAD =           0.0000
               WELLS =    41838737.3934                 WELLS =       76348.0609
            RECHARGE =           0.0000              RECHARGE =           0.0000
      STREAM LEAKAGE =    75009449.5672        STREAM LEAKAGE =      118351.2542

           TOTAL OUT =   117787707.1629             TOTAL OUT =      204771.9381

            IN - OUT =          -0.5620              IN - OUT =       1.6458E-03

 PERCENT DISCREPANCY =          -0.00     PERCENT DISCREPANCY =           0.00






         TIME SUMMARY AT END OF TIME STEP    1 IN STRESS PERIOD    6
                    SECONDS     MINUTES      HOURS       DAYS        YEARS
                    -----------------------------------------------------------
   TIME STEP LENGTH 7.86240E+06 1.31040E+05  2184.0      91.000     0.24914    
 STRESS PERIOD TIME 7.86240E+06 1.31040E+05  2184.0      91.000     0.24914    
         TOTAL TIME 4.73472E+07 7.89120E+05  13152.      548.00      1.5003    
1
1
                            STRESS PERIOD NO.    7, LENGTH =   91.00000    
                            -----------------------------------------------

                              NUMBER OF TIME STEPS =     1

                               MULTIPLIER FOR DELT =     1.500

                            INITIAL TIME STEP SIZE =   91.00000    

 WELL NO.  LAYER   ROW   COL   STRESS RATE         
 --------------------------------------------------
      1      1     21     23     -0.1821E+05
      2      1     20     24     -0.1241E+05
      3      1     19     20     -0.2382E+05
      4      1     19     24     -0.2191E+05

      4 WELLS

                 RECHARGE =   0.00000    

 REUSING STREAM SEGMENT DATA FROM LAST STRESS PERIOD
 
 SOLVING FOR HEAD 


     7 CALLS TO PCG ROUTINE FOR TIME STEP   1 IN STRESS PERIOD    7
    26 TOTAL ITERATIONS

 OUTPUT CONTROL FOR STRESS PERIOD    7   TIME STEP    1
    SAVE BUDGET
    SAVE HEAD FOR ALL LAYERS
    PRINT HEAD FOR ALL LAYERS
 UBDSV2 SAVING "STREAMFLOW OUT  " ON UNIT  50 AT TIME STEP  1, STRESS PERIOD   7



 STREAM LISTING     PERIOD      7   STEP        1

 LAYER ROW COL. STREAM  RCH.  FLOW INTO     FLOW TO   FLOW OUT OF   OVRLND.     DIRECT     STREAM       STREAM     STREAM     STREAM   STREAMBED  STREAMBED
                SEG.NO.  NO.  STRM. RCH.    AQUIFER    STRM. RCH.    RUNOFF     PRECIP       ET          HEAD       DEPTH      WIDTH   CONDCTNC.   GRADIENT

   1   13    1     1     1    1.0000E+05 -2.6951E+03   1.0270E+05  0.000E+00  0.000E+00  0.000E+00  4.84072E+01  1.458E-01  2.000E+01  2.000E+04 -1.348E-01
   1   13    2     1     2    1.0270E+05 -4.5866E+03   1.0728E+05  0.000E+00  0.000E+00  0.000E+00  4.79330E+01  1.489E-01  2.000E+01  2.000E+04 -2.293E-01
   1   14    3     1     3    1.0728E+05 -3.6240E+03   1.1091E+05  0.000E+00  0.000E+00  0.000E+00  4.74592E+01  1.524E-01  2.000E+01  2.000E+04 -1.812E-01
   1   15    4     1     4    1.1091E+05 -3.5185E+03   1.1442E+05  0.000E+00  0.000E+00  0.000E+00  4.69849E+01  1.554E-01  2.000E+01  2.000E+04 -1.759E-01
   1   16    5     1     5    1.1442E+05 -3.8398E+03   1.1826E+05  0.000E+00  0.000E+00  0.000E+00  4.65107E+01  1.584E-01  2.000E+01  2.000E+04 -1.920E-01
   1   16    6     1     6    1.1826E+05 -3.0279E+03   1.2129E+05  0.000E+00  0.000E+00  0.000E+00  4.60362E+01  1.612E-01  2.000E+01  2.000E+04 -1.514E-01
   1   16    7     1     7    1.2129E+05 -3.0775E+03   1.2437E+05  0.000E+00  0.000E+00  0.000E+00  4.55614E+01  1.636E-01  2.000E+01  2.000E+04 -1.539E-01
   1   16    8     1     8    1.2437E+05 -3.0890E+03   1.2746E+05  0.000E+00  0.000E+00  0.000E+00  4.50866E+01  1.661E-01  2.000E+01  2.000E+04 -1.544E-01
   1   16    9     1     9    1.2746E+05 -3.0448E+03   1.3050E+05  0.000E+00  0.000E+00  0.000E+00  4.46117E+01  1.685E-01  2.000E+01  2.000E+04 -1.522E-01
   1   16   10     1    10    1.3050E+05 -2.9382E+03   1.3344E+05  0.000E+00  0.000E+00  0.000E+00  4.41368E+01  1.708E-01  2.000E+01  2.000E+04 -1.469E-01
   1   16   11     1    11    1.3344E+05 -2.7632E+03   1.3620E+05  0.000E+00  0.000E+00  0.000E+00  4.36617E+01  1.731E-01  2.000E+01  2.000E+04 -1.382E-01
   1   16   12     1    12    1.3620E+05 -3.0750E+03   1.3928E+05  0.000E+00  0.000E+00  0.000E+00  4.31867E+01  1.753E-01  2.000E+01  2.000E+04 -1.538E-01
   1   15   13     1    13    1.3928E+05 -2.7075E+03   1.4199E+05  0.000E+00  0.000E+00  0.000E+00  4.27116E+01  1.775E-01  2.000E+01  2.000E+04 -1.354E-01
   1   14   14     1    14    1.4199E+05 -2.7535E+03   1.4474E+05  0.000E+00  0.000E+00  0.000E+00  4.22364E+01  1.796E-01  2.000E+01  2.000E+04 -1.377E-01
   1   13   15     1    15    1.4474E+05 -3.1979E+03   1.4794E+05  0.000E+00  0.000E+00  0.000E+00  4.17613E+01  1.818E-01  2.000E+01  2.000E+04 -1.599E-01
   1   12   16     1    16    1.4794E+05 -4.8737E+03   1.5281E+05  0.000E+00  0.000E+00  0.000E+00  4.12870E+01  1.848E-01  2.000E+01  2.000E+04 -2.437E-01
   1   12   17     1    17    1.5281E+05 -2.8669E+03   1.5568E+05  0.000E+00  0.000E+00  0.000E+00  4.08126E+01  1.876E-01  2.000E+01  2.000E+04 -1.433E-01
   1   12   18     1    18    1.5568E+05 -2.6598E+03   1.5834E+05  0.000E+00  0.000E+00  0.000E+00  4.03373E+01  1.896E-01  2.000E+01  2.000E+04 -1.330E-01
   1   12   19     1    19    1.5834E+05 -3.7823E+03   1.6212E+05  0.000E+00  0.000E+00  0.000E+00  3.98624E+01  1.919E-01  2.000E+01  2.000E+04 -1.891E-01
   1   13   20     1    20    1.6212E+05 -1.2072E+03   1.6333E+05  0.000E+00  0.000E+00  0.000E+00  3.93869E+01  1.937E-01  2.000E+01  2.000E+04 -6.036E-02
   1   14   21     1    21    1.6333E+05  1.2486E+03   1.6208E+05  0.000E+00  0.000E+00  0.000E+00  3.89096E+01  1.937E-01  2.000E+01  2.000E+04  6.243E-02
   1   14   22     1    22    1.6208E+05  5.6614E+03   1.5642E+05  0.000E+00  0.000E+00  0.000E+00  3.84299E+01  1.912E-01  2.000E+01  2.000E+04  2.831E-01
   1    9   30     2     1    5.0000E+04 -2.5944E+03   5.2594E+04  0.000E+00  0.000E+00  0.000E+00  4.02427E+01  1.177E-01  2.000E+01  2.000E+04 -1.297E-01
   1    9   29     2     2    5.2594E+04 -2.9284E+03   5.5523E+04  0.000E+00  0.000E+00  0.000E+00  3.99964E+01  1.214E-01  2.000E+01  2.000E+04 -1.464E-01
   1    9   28     2     3    5.5523E+04 -3.3123E+03   5.8835E+04  0.000E+00  0.000E+00  0.000E+00  3.97506E+01  1.256E-01  2.000E+01  2.000E+04 -1.656E-01
   1    9   27     2     4    5.8835E+04 -5.9955E+03   6.4831E+04  0.000E+00  0.000E+00  0.000E+00  3.95066E+01  1.316E-01  2.000E+01  2.000E+04 -2.998E-01
   1   10   26     2     5    6.4831E+04 -3.6045E+03   6.8435E+04  0.000E+00  0.000E+00  0.000E+00  3.92627E+01  1.377E-01  2.000E+01  2.000E+04 -1.802E-01
   1   11   25     2     6    6.8435E+04 -2.5604E+03   7.0995E+04  0.000E+00  0.000E+00  0.000E+00  3.90164E+01  1.414E-01  2.000E+01  2.000E+04 -1.280E-01
   1   12   24     2     7    7.0995E+04 -1.7232E+03   7.2719E+04  0.000E+00  0.000E+00  0.000E+00  3.87690E+01  1.440E-01  2.000E+01  2.000E+04 -8.616E-02
   1   13   23     2     8    7.2719E+04 -8.9854E+02   7.3617E+04  0.000E+00  0.000E+00  0.000E+00  3.85206E+01  1.456E-01  2.000E+01  2.000E+04 -4.493E-02
   1   14   22     2     9    7.3617E+04  2.4574E+03   7.1160E+04  0.000E+00  0.000E+00  0.000E+00  3.82697E+01  1.447E-01  2.000E+01  2.000E+04  1.229E-01
   1   14   22     3     1    2.2758E+05 -7.8524E+03   2.3543E+05  0.000E+00  0.000E+00  0.000E+00  3.77542E+01  1.986E-01  2.000E+01  2.000E+04 -3.926E-01
   1   15   23     3     2    2.3543E+05  2.6825E+03   2.3275E+05  0.000E+00  0.000E+00  0.000E+00  3.68666E+01  2.000E-01  2.000E+01  2.000E+04  1.341E-01
   1   15   24     3     3    2.3275E+05  1.5544E+03   2.3119E+05  0.000E+00  0.000E+00  0.000E+00  3.59766E+01  1.989E-01  2.000E+01  2.000E+04  7.772E-02
   1   15   25     3     4    2.3119E+05  9.0398E+02   2.3029E+05  0.000E+00  0.000E+00  0.000E+00  3.50871E+01  1.982E-01  2.000E+01  2.000E+04  4.520E-02
   1   15   26     3     5    2.3029E+05 -4.1174E+02   2.3070E+05  0.000E+00  0.000E+00  0.000E+00  3.41981E+01  1.981E-01  2.000E+01  2.000E+04 -2.059E-02
   1   16   27     3     6    2.3070E+05  4.9640E+02   2.3021E+05  0.000E+00  0.000E+00  0.000E+00  3.33092E+01  1.981E-01  2.000E+01  2.000E+04  2.482E-02
   1   17   28     3     7    2.3021E+05 -2.1788E+02   2.3042E+05  0.000E+00  0.000E+00  0.000E+00  3.24202E+01  1.980E-01  2.000E+01  2.000E+04 -1.089E-02
   1   18   29     3     8    2.3042E+05 -2.0776E+03   2.3250E+05  0.000E+00  0.000E+00  0.000E+00  3.15319E+01  1.986E-01  2.000E+01  2.000E+04 -1.039E-01
   1   18   30     3     9    2.3250E+05 -3.2428E+03   2.3574E+05  0.000E+00  0.000E+00  0.000E+00  3.06444E+01  2.000E-01  2.000E+01  2.000E+04 -1.621E-01



1
              HEAD IN LAYER   1 AT END OF TIME STEP   1 IN STRESS PERIOD    7
  ---------------------------------------------------------------------------

          1      2      3      4      5      6      7      8      9     10
         11     12     13     14     15     16     17     18     19     20
         21     22     23     24     25     26     27     28     29     30
 .........................................................................
   1  ****** ****** ****** ****** ****** ****** ****** ****** ****** ******
      ****** ****** ****** ****** ****** ****** ****** ****** ****** ******
      ****** ****** ****** ****** ****** ****** ****** ****** ****** ******
   2  ****** ****** ****** ****** ****** ****** ****** ****** ****** ******
      ****** ****** ****** ****** ****** ****** ****** ****** ****** ******
      ****** ****** ****** ****** ****** ****** ****** ****** ****** ******
   3  ****** ****** ****** ****** ****** ****** ****** ****** ****** ******
      ****** ****** ****** ****** ****** ****** ****** ****** ****** ******
      ****** ****** ****** ****** ****** ****** ****** ****** ****** ******
   4  ****** ****** ****** ****** ****** ****** ****** ****** ****** ******
      ****** ****** ****** ****** ****** ****** ****** ****** ****** ******
      ****** ****** ****** ****** ****** ****** ****** ****** ****** ******
   5  ****** ****** ****** ****** ****** ****** ****** ****** ****** ******
      ****** ****** ****** ****** ****** ****** ****** ****** ****** ******
      ****** ****** ****** ****** ****** ****** ****** ****** ****** ******
   6  ****** ****** ****** ****** ****** ****** ****** ****** ****** ******
      ****** ****** ****** ****** ****** ****** ****** ****** ****** ******
      ****** ****** ****** ****** ****** ****** ****** ****** ****** ******
   7  ****** ****** ****** ****** ****** ****** ****** ****** ****** ******
      ****** ****** ****** ****** ****** ****** ****** ****** ****** ******
      ****** ****** ****** ****** ****** ****** ****** ****** ****** ******
   8  ****** ****** ****** ****** ****** ****** ****** ****** ****** ******
      ****** ****** ****** ****** ****** ****** ****** ****** ****** ******
      ****** ****** ****** ****** ****** ****** ****** ****** ****** ******
   9  ****** ****** ****** ****** ****** ****** ****** ****** ****** ******
      ****** ****** ****** ****** ****** ****** ****** ****** ****** ******
      ****** ****** ****** ****** ****** ****** ****** ****** ****** ******
  10  ****** ****** ****** ****** ****** ****** ****** ****** ****** ******
      ****** ****** ****** ****** ****** ****** ****** ****** ****** ******
      ****** ****** ****** ****** ****** ****** ****** ****** ****** ******
  11  ****** ****** ****** ****** ****** ****** ****** ****** ****** ******
      ****** ****** ****** ****** ****** ****** ****** ****** ****** ******
      ****** ****** ****** ****** ****** ****** ****** ****** ****** ******
  12  ****** ****** ****** ****** ****** ****** ****** ****** ****** ******
      ****** ****** ****** ****** ****** ****** ****** ****** ****** ******
      ****** ****** ****** ****** ****** ****** ****** ****** ****** ******
  13  ****** ****** ****** ****** ****** ****** ****** ****** ****** ******
      ****** ****** ****** ****** ****** ****** ****** ****** ****** ******
      ****** ****** ****** ****** ****** ****** ****** ****** ****** ******
  14  ****** ****** ****** ****** ****** ****** ****** ****** ****** ******
      ****** ****** ****** ****** ****** ****** ****** ****** ****** ******
      ****** ****** ****** ****** ****** ****** ****** ****** ****** ******
  15  ****** ****** ****** ****** ****** ****** ****** ****** ****** ******
      ****** ****** ****** ****** ****** ****** ****** ****** ****** ******
      ****** ****** ****** ****** ****** ****** ****** ****** ****** ******
  16  ****** ****** ****** ****** ****** ****** ****** ****** ****** ******
      ****** ****** ****** ****** ****** ****** ****** ****** ****** ******
      ****** ****** ****** ****** ****** ****** ****** ****** ****** ******
  17  ****** ****** ****** ****** ****** ****** ****** ****** ****** ******
      ****** ****** ****** ****** ****** ****** ****** ****** ****** ******
      ****** ****** ****** ****** ****** ****** ****** ****** ****** ******
  18  ****** ****** ****** ****** ****** ****** ****** ****** ****** ******
      ****** ****** ****** ****** ****** ****** ****** ****** ****** ******
      ****** ****** ****** ****** ****** ****** ****** ****** ****** ******
  19  ****** ****** ****** ****** ****** ****** ****** ****** ****** ******
      ****** ****** ****** ****** ****** ****** ****** ****** ****** ******
      ****** ****** ****** ****** ****** ****** ****** ****** ****** ******
  20  ****** ****** ****** ****** ****** ****** ****** ****** ****** ******
      ****** ****** ****** ****** ****** ****** ****** ****** ****** ******
      ****** ****** ****** ****** ****** ****** ****** ****** ****** ******
  21  ****** ****** ****** ****** ****** ****** ****** ****** ****** ******
      ****** ****** ****** ****** ****** ****** ****** ****** ****** ******
      ****** ****** ****** ****** ****** ****** ****** ****** ****** ******
  22  ****** ****** ****** ****** ****** ****** ****** ****** ****** ******
      ****** ****** ****** ****** ****** ****** ****** ****** ****** ******
      ****** ****** ****** ****** ****** ****** ****** ****** ****** ******
  23  ****** ****** ****** ****** ****** ****** ****** ****** ****** ******
      ****** ****** ****** ****** ****** ****** ****** ****** ****** ******
      ****** ****** ****** ****** ****** ****** ****** ****** ****** ******
  24  ****** ****** ****** ****** ****** ****** ****** ****** ****** ******
      ****** ****** ****** ****** ****** ****** ****** ****** ****** ******
      ****** ****** ****** ****** ****** ****** ****** ****** ****** ******
  25  ****** ****** ****** ****** ****** ****** ****** ****** ****** ******
      ****** ****** ****** ****** ****** ****** ****** ****** ****** ******
      ****** ****** ****** ****** ****** ****** ****** ****** ****** ******

 HEAD WILL BE SAVED ON UNIT   51 AT END OF TIME STEP    1, STRESS PERIOD    7
1
  VOLUMETRIC BUDGET FOR ENTIRE MODEL AT END OF TIME STEP    1, STRESS PERIOD   7
  ------------------------------------------------------------------------------

     CUMULATIVE VOLUMES      L**3       RATES FOR THIS TIME STEP      L**3/T
     ------------------                 ------------------------

           IN:                                      IN:
           ---                                      ---
             STORAGE =    25180713.1447               STORAGE =       12111.7378
       CONSTANT HEAD =    85910997.9682         CONSTANT HEAD =      149979.6714
               WELLS =           0.0000                 WELLS =           0.0000
            RECHARGE =    15097200.0000              RECHARGE =           0.0000
      STREAM LEAKAGE =     7714528.9527        STREAM LEAKAGE =       15004.5629

            TOTAL IN =   133903440.0656              TOTAL IN =      177095.9721

          OUT:                                     OUT:
          ----                                     ----
             STORAGE =      939520.2023               STORAGE =           0.0000
       CONSTANT HEAD =           0.0000         CONSTANT HEAD =           0.0000
               WELLS =    48786410.9387                 WELLS =       76348.0609
            RECHARGE =           0.0000              RECHARGE =           0.0000
      STREAM LEAKAGE =    84177509.6824        STREAM LEAKAGE =      100747.9134

           TOTAL OUT =   133903440.8234             TOTAL OUT =      177095.9743

            IN - OUT =          -0.7577              IN - OUT =      -2.1514E-03

 PERCENT DISCREPANCY =          -0.00     PERCENT DISCREPANCY =          -0.00






         TIME SUMMARY AT END OF TIME STEP    1 IN STRESS PERIOD    7
                    SECONDS     MINUTES      HOURS       DAYS        YEARS
                    -----------------------------------------------------------
   TIME STEP LENGTH 7.86240E+06 1.31040E+05  2184.0      91.000     0.24914    
 STRESS PERIOD TIME 7.86240E+06 1.31040E+05  2184.0      91.000     0.24914    
         TOTAL TIME 5.52096E+07 9.20160E+05  15336.      639.00      1.7495    
1
1
                            STRESS PERIOD NO.    8, LENGTH =   91.00000    
                            -----------------------------------------------

                              NUMBER OF TIME STEPS =     1

                               MULTIPLIER FOR DELT =     1.500

                            INITIAL TIME STEP SIZE =   91.00000    

 WELL NO.  LAYER   ROW   COL   STRESS RATE         
 --------------------------------------------------
      1      1     21     23     -0.1821E+05
      2      1     20     24     -0.1241E+05
      3      1     19     20     -0.2382E+05
      4      1     19     24     -0.2191E+05

      4 WELLS

                 RECHARGE =  1.000000E-03

 REUSING STREAM SEGMENT DATA FROM LAST STRESS PERIOD
 
 SOLVING FOR HEAD 


     6 CALLS TO PCG ROUTINE FOR TIME STEP   1 IN STRESS PERIOD    8
    23 TOTAL ITERATIONS

 OUTPUT CONTROL FOR STRESS PERIOD    8   TIME STEP    1
    SAVE BUDGET
    SAVE HEAD FOR ALL LAYERS
    PRINT HEAD FOR ALL LAYERS
 UBDSV2 SAVING "STREAMFLOW OUT  " ON UNIT  50 AT TIME STEP  1, STRESS PERIOD   8



 STREAM LISTING     PERIOD      8   STEP        1

 LAYER ROW COL. STREAM  RCH.  FLOW INTO     FLOW TO   FLOW OUT OF   OVRLND.     DIRECT     STREAM       STREAM     STREAM     STREAM   STREAMBED  STREAMBED
                SEG.NO.  NO.  STRM. RCH.    AQUIFER    STRM. RCH.    RUNOFF     PRECIP       ET          HEAD       DEPTH      WIDTH   CONDCTNC.   GRADIENT

   1   13    1     1     1    1.0000E+05 -2.8645E+03   1.0286E+05  0.000E+00  0.000E+00  0.000E+00  4.84073E+01  1.459E-01  2.000E+01  2.000E+04 -1.432E-01
   1   13    2     1     2    1.0286E+05 -4.7981E+03   1.0766E+05  0.000E+00  0.000E+00  0.000E+00  4.79333E+01  1.492E-01  2.000E+01  2.000E+04 -2.399E-01
   1   14    3     1     3    1.0766E+05 -3.8584E+03   1.1152E+05  0.000E+00  0.000E+00  0.000E+00  4.74596E+01  1.528E-01  2.000E+01  2.000E+04 -1.929E-01
   1   15    4     1     4    1.1152E+05 -3.7560E+03   1.1528E+05  0.000E+00  0.000E+00  0.000E+00  4.69855E+01  1.560E-01  2.000E+01  2.000E+04 -1.878E-01
   1   16    5     1     5    1.1528E+05 -4.0601E+03   1.1934E+05  0.000E+00  0.000E+00  0.000E+00  4.65115E+01  1.592E-01  2.000E+01  2.000E+04 -2.030E-01
   1   16    6     1     6    1.1934E+05 -3.2026E+03   1.2254E+05  0.000E+00  0.000E+00  0.000E+00  4.60371E+01  1.621E-01  2.000E+01  2.000E+04 -1.601E-01
   1   16    7     1     7    1.2254E+05 -3.2539E+03   1.2579E+05  0.000E+00  0.000E+00  0.000E+00  4.55624E+01  1.647E-01  2.000E+01  2.000E+04 -1.627E-01
   1   16    8     1     8    1.2579E+05 -3.2663E+03   1.2906E+05  0.000E+00  0.000E+00  0.000E+00  4.50877E+01  1.673E-01  2.000E+01  2.000E+04 -1.633E-01
   1   16    9     1     9    1.2906E+05 -3.2221E+03   1.3228E+05  0.000E+00  0.000E+00  0.000E+00  4.46130E+01  1.698E-01  2.000E+01  2.000E+04 -1.611E-01
   1   16   10     1    10    1.3228E+05 -3.1143E+03   1.3540E+05  0.000E+00  0.000E+00  0.000E+00  4.41382E+01  1.723E-01  2.000E+01  2.000E+04 -1.557E-01
   1   16   11     1    11    1.3540E+05 -2.9376E+03   1.3833E+05  0.000E+00  0.000E+00  0.000E+00  4.36633E+01  1.746E-01  2.000E+01  2.000E+04 -1.469E-01
   1   16   12     1    12    1.3833E+05 -3.2950E+03   1.4163E+05  0.000E+00  0.000E+00  0.000E+00  4.31884E+01  1.770E-01  2.000E+01  2.000E+04 -1.647E-01
   1   15   13     1    13    1.4163E+05 -2.9469E+03   1.4458E+05  0.000E+00  0.000E+00  0.000E+00  4.27134E+01  1.794E-01  2.000E+01  2.000E+04 -1.473E-01
   1   14   14     1    14    1.4458E+05 -2.9952E+03   1.4757E+05  0.000E+00  0.000E+00  0.000E+00  4.22384E+01  1.816E-01  2.000E+01  2.000E+04 -1.498E-01
   1   13   15     1    15    1.4757E+05 -3.4340E+03   1.5100E+05  0.000E+00  0.000E+00  0.000E+00  4.17635E+01  1.840E-01  2.000E+01  2.000E+04 -1.717E-01
   1   12   16     1    16    1.5100E+05 -5.0883E+03   1.5609E+05  0.000E+00  0.000E+00  0.000E+00  4.12894E+01  1.871E-01  2.000E+01  2.000E+04 -2.544E-01
   1   12   17     1    17    1.5609E+05 -3.0379E+03   1.5913E+05  0.000E+00  0.000E+00  0.000E+00  4.08151E+01  1.901E-01  2.000E+01  2.000E+04 -1.519E-01
   1   12   18     1    18    1.5913E+05 -2.8307E+03   1.6196E+05  0.000E+00  0.000E+00  0.000E+00  4.03399E+01  1.922E-01  2.000E+01  2.000E+04 -1.415E-01
   1   12   19     1    19    1.6196E+05 -3.9910E+03   1.6595E+05  0.000E+00  0.000E+00  0.000E+00  3.98651E+01  1.946E-01  2.000E+01  2.000E+04 -1.995E-01
   1   13   20     1    20    1.6595E+05 -1.4241E+03   1.6738E+05  0.000E+00  0.000E+00  0.000E+00  3.93897E+01  1.965E-01  2.000E+01  2.000E+04 -7.121E-02
   1   14   21     1    21    1.6738E+05  1.0536E+03   1.6632E+05  0.000E+00  0.000E+00  0.000E+00  3.89126E+01  1.967E-01  2.000E+01  2.000E+04  5.268E-02
   1   14   22     1    22    1.6632E+05  5.6178E+03   1.6071E+05  0.000E+00  0.000E+00  0.000E+00  3.84329E+01  1.943E-01  2.000E+01  2.000E+04  2.809E-01
   1    9   30     2     1    5.0000E+04 -2.7734E+03   5.2773E+04  0.000E+00  0.000E+00  0.000E+00  4.02428E+01  1.178E-01  2.000E+01  2.000E+04 -1.387E-01
   1    9   29     2     2    5.2773E+04 -3.1056E+03   5.5879E+04  0.000E+00  0.000E+00  0.000E+00  3.99968E+01  1.218E-01  2.000E+01  2.000E+04 -1.553E-01
   1    9   28     2     3    5.5879E+04 -3.4868E+03   5.9366E+04  0.000E+00  0.000E+00  0.000E+00  3.97512E+01  1.262E-01  2.000E+01  2.000E+04 -1.743E-01
   1    9   27     2     4    5.9366E+04 -6.2149E+03   6.5581E+04  0.000E+00  0.000E+00  0.000E+00  3.95074E+01  1.324E-01  2.000E+01  2.000E+04 -3.107E-01
   1   10   26     2     5    6.5581E+04 -3.8409E+03   6.9422E+04  0.000E+00  0.000E+00  0.000E+00  3.92637E+01  1.387E-01  2.000E+01  2.000E+04 -1.920E-01
   1   11   25     2     6    6.9422E+04 -2.7903E+03   7.2212E+04  0.000E+00  0.000E+00  0.000E+00  3.90178E+01  1.428E-01  2.000E+01  2.000E+04 -1.395E-01
   1   12   24     2     7    7.2212E+04 -1.9320E+03   7.4144E+04  0.000E+00  0.000E+00  0.000E+00  3.87706E+01  1.456E-01  2.000E+01  2.000E+04 -9.660E-02
   1   13   23     2     8    7.4144E+04 -1.0682E+03   7.5212E+04  0.000E+00  0.000E+00  0.000E+00  3.85224E+01  1.474E-01  2.000E+01  2.000E+04 -5.341E-02
   1   14   22     2     9    7.5212E+04  2.3914E+03   7.2821E+04  0.000E+00  0.000E+00  0.000E+00  3.82716E+01  1.466E-01  2.000E+01  2.000E+04  1.196E-01
   1   14   22     3     1    2.3353E+05 -7.8960E+03   2.4142E+05  0.000E+00  0.000E+00  0.000E+00  3.77572E+01  2.017E-01  2.000E+01  2.000E+04 -3.948E-01
   1   15   23     3     2    2.4142E+05  2.4995E+03   2.3892E+05  0.000E+00  0.000E+00  0.000E+00  3.68697E+01  2.031E-01  2.000E+01  2.000E+04  1.250E-01
   1   15   24     3     3    2.3892E+05  1.4108E+03   2.3751E+05  0.000E+00  0.000E+00  0.000E+00  3.59798E+01  2.021E-01  2.000E+01  2.000E+04  7.054E-02
   1   15   25     3     4    2.3751E+05  7.5546E+02   2.3676E+05  0.000E+00  0.000E+00  0.000E+00  3.50904E+01  2.015E-01  2.000E+01  2.000E+04  3.777E-02
   1   15   26     3     5    2.3676E+05 -6.0625E+02   2.3736E+05  0.000E+00  0.000E+00  0.000E+00  3.42015E+01  2.015E-01  2.000E+01  2.000E+04 -3.031E-02
   1   16   27     3     6    2.3736E+05  2.6282E+02   2.3710E+05  0.000E+00  0.000E+00  0.000E+00  3.33127E+01  2.016E-01  2.000E+01  2.000E+04  1.314E-02
   1   17   28     3     7    2.3710E+05 -4.5386E+02   2.3755E+05  0.000E+00  0.000E+00  0.000E+00  3.24238E+01  2.016E-01  2.000E+01  2.000E+04 -2.269E-02
   1   18   29     3     8    2.3755E+05 -2.2931E+03   2.3985E+05  0.000E+00  0.000E+00  0.000E+00  3.15356E+01  2.023E-01  2.000E+01  2.000E+04 -1.147E-01
   1   18   30     3     9    2.3985E+05 -3.4130E+03   2.4326E+05  0.000E+00  0.000E+00  0.000E+00  3.06482E+01  2.038E-01  2.000E+01  2.000E+04 -1.706E-01



1
              HEAD IN LAYER   1 AT END OF TIME STEP   1 IN STRESS PERIOD    8
  ---------------------------------------------------------------------------

          1      2      3      4      5      6      7      8      9     10
         11     12     13     14     15     16     17     18     19     20
         21     22     23     24     25     26     27     28     29     30
 .........................................................................
   1  ****** ****** ****** ****** ****** ****** ****** ****** ****** ******
      ****** ****** ****** ****** ****** ****** ****** ****** ****** ******
      ****** ****** ****** ****** ****** ****** ****** ****** ****** ******
   2  ****** ****** ****** ****** ****** ****** ****** ****** ****** ******
      ****** ****** ****** ****** ****** ****** ****** ****** ****** ******
      ****** ****** ****** ****** ****** ****** ****** ****** ****** ******
   3  ****** ****** ****** ****** ****** ****** ****** ****** ****** ******
      ****** ****** ****** ****** ****** ****** ****** ****** ****** ******
      ****** ****** ****** ****** ****** ****** ****** ****** ****** ******
   4  ****** ****** ****** ****** ****** ****** ****** ****** ****** ******
      ****** ****** ****** ****** ****** ****** ****** ****** ****** ******
      ****** ****** ****** ****** ****** ****** ****** ****** ****** ******
   5  ****** ****** ****** ****** ****** ****** ****** ****** ****** ******
      ****** ****** ****** ****** ****** ****** ****** ****** ****** ******
      ****** ****** ****** ****** ****** ****** ****** ****** ****** ******
   6  ****** ****** ****** ****** ****** ****** ****** ****** ****** ******
      ****** ****** ****** ****** ****** ****** ****** ****** ****** ******
      ****** ****** ****** ****** ****** ****** ****** ****** ****** ******
   7  ****** ****** ****** ****** ****** ****** ****** ****** ****** ******
      ****** ****** ****** ****** ****** ****** ****** ****** ****** ******
      ****** ****** ****** ****** ****** ****** ****** ****** ****** ******
   8  ****** ****** ****** ****** ****** ****** ****** ****** ****** ******
      ****** ****** ****** ****** ****** ****** ****** ****** ****** ******
      ****** ****** ****** ****** ****** ****** ****** ****** ****** ******
   9  ****** ****** ****** ****** ****** ****** ****** ****** ****** ******
      ****** ****** ****** ****** ****** ****** ****** ****** ****** ******
      ****** ****** ****** ****** ****** ****** ****** ****** ****** ******
  10  ****** ****** ****** ****** ****** ****** ****** ****** ****** ******
      ****** ****** ****** ****** ****** ****** ****** ****** ****** ******
      ****** ****** ****** ****** ****** ****** ****** ****** ****** ******
  11  ****** ****** ****** ****** ****** ****** ****** ****** ****** ******
      ****** ****** ****** ****** ****** ****** ****** ****** ****** ******
      ****** ****** ****** ****** ****** ****** ****** ****** ****** ******
  12  ****** ****** ****** ****** ****** ****** ****** ****** ****** ******
      ****** ****** ****** ****** ****** ****** ****** ****** ****** ******
      ****** ****** ****** ****** ****** ****** ****** ****** ****** ******
  13  ****** ****** ****** ****** ****** ****** ****** ****** ****** ******
      ****** ****** ****** ****** ****** ****** ****** ****** ****** ******
      ****** ****** ****** ****** ****** ****** ****** ****** ****** ******
  14  ****** ****** ****** ****** ****** ****** ****** ****** ****** ******
      ****** ****** ****** ****** ****** ****** ****** ****** ****** ******
      ****** ****** ****** ****** ****** ****** ****** ****** ****** ******
  15  ****** ****** ****** ****** ****** ****** ****** ****** ****** ******
      ****** ****** ****** ****** ****** ****** ****** ****** ****** ******
      ****** ****** ****** ****** ****** ****** ****** ****** ****** ******
  16  ****** ****** ****** ****** ****** ****** ****** ****** ****** ******
      ****** ****** ****** ****** ****** ****** ****** ****** ****** ******
      ****** ****** ****** ****** ****** ****** ****** ****** ****** ******
  17  ****** ****** ****** ****** ****** ****** ****** ****** ****** ******
      ****** ****** ****** ****** ****** ****** ****** ****** ****** ******
      ****** ****** ****** ****** ****** ****** ****** ****** ****** ******
  18  ****** ****** ****** ****** ****** ****** ****** ****** ****** ******
      ****** ****** ****** ****** ****** ****** ****** ****** ****** ******
      ****** ****** ****** ****** ****** ****** ****** ****** ****** ******
  19  ****** ****** ****** ****** ****** ****** ****** ****** ****** ******
      ****** ****** ****** ****** ****** ****** ****** ****** ****** ******
      ****** ****** ****** ****** ****** ****** ****** ****** ****** ******
  20  ****** ****** ****** ****** ****** ****** ****** ****** ****** ******
      ****** ****** ****** ****** ****** ****** ****** ****** ****** ******
      ****** ****** ****** ****** ****** ****** ****** ****** ****** ******
  21  ****** ****** ****** ****** ****** ****** ****** ****** ****** ******
      ****** ****** ****** ****** ****** ****** ****** ****** ****** ******
      ****** ****** ****** ****** ****** ****** ****** ****** ****** ******
  22  ****** ****** ****** ****** ****** ****** ****** ****** ****** ******
      ****** ****** ****** ****** ****** ****** ****** ****** ****** ******
      ****** ****** ****** ****** ****** ****** ****** ****** ****** ******
  23  ****** ****** ****** ****** ****** ****** ****** ****** ****** ******
      ****** ****** ****** ****** ****** ****** ****** ****** ****** ******
      ****** ****** ****** ****** ****** ****** ****** ****** ****** ******
  24  ****** ****** ****** ****** ****** ****** ****** ****** ****** ******
      ****** ****** ****** ****** ****** ****** ****** ****** ****** ******
      ****** ****** ****** ****** ****** ****** ****** ****** ****** ******
  25  ****** ****** ****** ****** ****** ****** ****** ****** ****** ******
      ****** ****** ****** ****** ****** ****** ****** ****** ****** ******
      ****** ****** ****** ****** ****** ****** ****** ****** ****** ******

 HEAD WILL BE SAVED ON UNIT   51 AT END OF TIME STEP    1, STRESS PERIOD    8
1
  VOLUMETRIC BUDGET FOR ENTIRE MODEL AT END OF TIME STEP    1, STRESS PERIOD   8
  ------------------------------------------------------------------------------

     CUMULATIVE VOLUMES      L**3       RATES FOR THIS TIME STEP      L**3/T
     ------------------                 ------------------------

           IN:                                      IN:
           ---                                      ---
             STORAGE =    25180713.1447               STORAGE =           0.0000
       CONSTANT HEAD =    99164173.8885         CONSTANT HEAD =      145639.2958
               WELLS =           0.0000                 WELLS =           0.0000
            RECHARGE =    17608800.0000              RECHARGE =       27600.0000
      STREAM LEAKAGE =     8987745.3736        STREAM LEAKAGE =       13991.3892

            TOTAL IN =   150941432.4069              TOTAL IN =      187230.6851

          OUT:                                     OUT:
          ----                                     ----
             STORAGE =     1269972.2303               STORAGE =        3631.3410
       CONSTANT HEAD =           0.0000         CONSTANT HEAD =           0.0000
               WELLS =    55734084.4840                 WELLS =       76348.0609
            RECHARGE =           0.0000              RECHARGE =           0.0000
      STREAM LEAKAGE =    93937376.3755        STREAM LEAKAGE =      107251.2823

           TOTAL OUT =   150941433.0898             TOTAL OUT =      187230.6842

            IN - OUT =          -0.6829              IN - OUT =       8.2224E-04

 PERCENT DISCREPANCY =          -0.00     PERCENT DISCREPANCY =           0.00






         TIME SUMMARY AT END OF TIME STEP    1 IN STRESS PERIOD    8
                    SECONDS     MINUTES      HOURS       DAYS        YEARS
                    -----------------------------------------------------------
   TIME STEP LENGTH 7.86240E+06 1.31040E+05  2184.0      91.000     0.24914    
 STRESS PERIOD TIME 7.86240E+06 1.31040E+05  2184.0      91.000     0.24914    
         TOTAL TIME 6.30720E+07 1.05120E+06  17520.      730.00      1.9986    
1
1
                            STRESS PERIOD NO.    9, LENGTH =   92.00000    
                            -----------------------------------------------

                              NUMBER OF TIME STEPS =     1

                               MULTIPLIER FOR DELT =     1.500

                            INITIAL TIME STEP SIZE =   92.00000    

 WELL NO.  LAYER   ROW   COL   STRESS RATE         
 --------------------------------------------------
      1      1     21     23     -0.1821E+05
      2      1     20     24     -0.1241E+05
      3      1     19     20     -0.2382E+05
      4      1     19     24     -0.2191E+05

      4 WELLS

                 RECHARGE =  5.000000E-04

 REUSING STREAM SEGMENT DATA FROM LAST STRESS PERIOD
 
 SOLVING FOR HEAD 


     6 CALLS TO PCG ROUTINE FOR TIME STEP   1 IN STRESS PERIOD    9
    22 TOTAL ITERATIONS

 OUTPUT CONTROL FOR STRESS PERIOD    9   TIME STEP    1
    SAVE BUDGET
    SAVE HEAD FOR ALL LAYERS
    PRINT HEAD FOR ALL LAYERS
 UBDSV2 SAVING "STREAMFLOW OUT  " ON UNIT  50 AT TIME STEP  1, STRESS PERIOD   9



 STREAM LISTING     PERIOD      9   STEP        1

 LAYER ROW COL. STREAM  RCH.  FLOW INTO     FLOW TO   FLOW OUT OF   OVRLND.     DIRECT     STREAM       STREAM     STREAM     STREAM   STREAMBED  STREAMBED
                SEG.NO.  NO.  STRM. RCH.    AQUIFER    STRM. RCH.    RUNOFF     PRECIP       ET          HEAD       DEPTH      WIDTH   CONDCTNC.   GRADIENT

   1   13    1     1     1    1.0000E+05 -2.7489E+03   1.0275E+05  0.000E+00  0.000E+00  0.000E+00  4.84072E+01  1.458E-01  2.000E+01  2.000E+04 -1.374E-01
   1   13    2     1     2    1.0275E+05 -4.6460E+03   1.0739E+05  0.000E+00  0.000E+00  0.000E+00  4.79331E+01  1.490E-01  2.000E+01  2.000E+04 -2.323E-01
   1   14    3     1     3    1.0739E+05 -3.7041E+03   1.1110E+05  0.000E+00  0.000E+00  0.000E+00  4.74594E+01  1.525E-01  2.000E+01  2.000E+04 -1.852E-01
   1   15    4     1     4    1.1110E+05 -3.6042E+03   1.1470E+05  0.000E+00  0.000E+00  0.000E+00  4.69851E+01  1.556E-01  2.000E+01  2.000E+04 -1.802E-01
   1   16    5     1     5    1.1470E+05 -3.9226E+03   1.1863E+05  0.000E+00  0.000E+00  0.000E+00  4.65109E+01  1.587E-01  2.000E+01  2.000E+04 -1.961E-01
   1   16    6     1     6    1.1863E+05 -3.0923E+03   1.2172E+05  0.000E+00  0.000E+00  0.000E+00  4.60365E+01  1.615E-01  2.000E+01  2.000E+04 -1.546E-01
   1   16    7     1     7    1.2172E+05 -3.1416E+03   1.2486E+05  0.000E+00  0.000E+00  0.000E+00  4.55617E+01  1.640E-01  2.000E+01  2.000E+04 -1.571E-01
   1   16    8     1     8    1.2486E+05 -3.1531E+03   1.2801E+05  0.000E+00  0.000E+00  0.000E+00  4.50870E+01  1.665E-01  2.000E+01  2.000E+04 -1.577E-01
   1   16    9     1     9    1.2801E+05 -3.1089E+03   1.3112E+05  0.000E+00  0.000E+00  0.000E+00  4.46122E+01  1.690E-01  2.000E+01  2.000E+04 -1.554E-01
   1   16   10     1    10    1.3112E+05 -3.0022E+03   1.3412E+05  0.000E+00  0.000E+00  0.000E+00  4.41373E+01  1.714E-01  2.000E+01  2.000E+04 -1.501E-01
   1   16   11     1    11    1.3412E+05 -2.8272E+03   1.3695E+05  0.000E+00  0.000E+00  0.000E+00  4.36622E+01  1.736E-01  2.000E+01  2.000E+04 -1.414E-01
   1   16   12     1    12    1.3695E+05 -3.1554E+03   1.4011E+05  0.000E+00  0.000E+00  0.000E+00  4.31873E+01  1.759E-01  2.000E+01  2.000E+04 -1.578E-01
   1   15   13     1    13    1.4011E+05 -2.7928E+03   1.4290E+05  0.000E+00  0.000E+00  0.000E+00  4.27122E+01  1.781E-01  2.000E+01  2.000E+04 -1.396E-01
   1   14   14     1    14    1.4290E+05 -2.8378E+03   1.4574E+05  0.000E+00  0.000E+00  0.000E+00  4.22371E+01  1.803E-01  2.000E+01  2.000E+04 -1.419E-01
   1   13   15     1    15    1.4574E+05 -3.2786E+03   1.4902E+05  0.000E+00  0.000E+00  0.000E+00  4.17621E+01  1.825E-01  2.000E+01  2.000E+04 -1.639E-01
   1   12   16     1    16    1.4902E+05 -4.9405E+03   1.5396E+05  0.000E+00  0.000E+00  0.000E+00  4.12879E+01  1.856E-01  2.000E+01  2.000E+04 -2.470E-01
   1   12   17     1    17    1.5396E+05 -2.9274E+03   1.5688E+05  0.000E+00  0.000E+00  0.000E+00  4.08135E+01  1.885E-01  2.000E+01  2.000E+04 -1.464E-01
   1   12   18     1    18    1.5688E+05 -2.7223E+03   1.5961E+05  0.000E+00  0.000E+00  0.000E+00  4.03382E+01  1.905E-01  2.000E+01  2.000E+04 -1.361E-01
   1   12   19     1    19    1.5961E+05 -3.8594E+03   1.6347E+05  0.000E+00  0.000E+00  0.000E+00  3.98633E+01  1.929E-01  2.000E+01  2.000E+04 -1.930E-01
   1   13   20     1    20    1.6347E+05 -1.2944E+03   1.6476E+05  0.000E+00  0.000E+00  0.000E+00  3.93879E+01  1.947E-01  2.000E+01  2.000E+04 -6.472E-02
   1   14   21     1    21    1.6476E+05  1.1714E+03   1.6359E+05  0.000E+00  0.000E+00  0.000E+00  3.89107E+01  1.948E-01  2.000E+01  2.000E+04  5.857E-02
   1   14   22     1    22    1.6359E+05  5.6409E+03   1.5795E+05  0.000E+00  0.000E+00  0.000E+00  3.84310E+01  1.923E-01  2.000E+01  2.000E+04  2.820E-01
   1    9   30     2     1    5.0000E+04 -2.6738E+03   5.2674E+04  0.000E+00  0.000E+00  0.000E+00  4.02427E+01  1.177E-01  2.000E+01  2.000E+04 -1.337E-01
   1    9   29     2     2    5.2674E+04 -3.0067E+03   5.5681E+04  0.000E+00  0.000E+00  0.000E+00  3.99966E+01  1.216E-01  2.000E+01  2.000E+04 -1.503E-01
   1    9   28     2     3    5.5681E+04 -3.3885E+03   5.9069E+04  0.000E+00  0.000E+00  0.000E+00  3.97508E+01  1.258E-01  2.000E+01  2.000E+04 -1.694E-01
   1    9   27     2     4    5.9069E+04 -6.0857E+03   6.5155E+04  0.000E+00  0.000E+00  0.000E+00  3.95070E+01  1.320E-01  2.000E+01  2.000E+04 -3.043E-01
   1   10   26     2     5    6.5155E+04 -3.7049E+03   6.8860E+04  0.000E+00  0.000E+00  0.000E+00  3.92631E+01  1.381E-01  2.000E+01  2.000E+04 -1.852E-01
   1   11   25     2     6    6.8860E+04 -2.6590E+03   7.1519E+04  0.000E+00  0.000E+00  0.000E+00  3.90170E+01  1.420E-01  2.000E+01  2.000E+04 -1.329E-01
   1   12   24     2     7    7.1519E+04 -1.8140E+03   7.3333E+04  0.000E+00  0.000E+00  0.000E+00  3.87697E+01  1.447E-01  2.000E+01  2.000E+04 -9.070E-02
   1   13   23     2     8    7.3333E+04 -9.7389E+02   7.4306E+04  0.000E+00  0.000E+00  0.000E+00  3.85214E+01  1.464E-01  2.000E+01  2.000E+04 -4.869E-02
   1   14   22     2     9    7.4306E+04  2.4318E+03   7.1875E+04  0.000E+00  0.000E+00  0.000E+00  3.82705E+01  1.455E-01  2.000E+01  2.000E+04  1.216E-01
   1   14   22     3     1    2.2982E+05 -7.8716E+03   2.3769E+05  0.000E+00  0.000E+00  0.000E+00  3.77553E+01  1.998E-01  2.000E+01  2.000E+04 -3.936E-01
   1   15   23     3     2    2.3769E+05  2.6094E+03   2.3508E+05  0.000E+00  0.000E+00  0.000E+00  3.68678E+01  2.011E-01  2.000E+01  2.000E+04  1.305E-01
   1   15   24     3     3    2.3508E+05  1.4926E+03   2.3359E+05  0.000E+00  0.000E+00  0.000E+00  3.59779E+01  2.001E-01  2.000E+01  2.000E+04  7.463E-02
   1   15   25     3     4    2.3359E+05  8.3801E+02   2.3275E+05  0.000E+00  0.000E+00  0.000E+00  3.50884E+01  1.995E-01  2.000E+01  2.000E+04  4.190E-02
   1   15   26     3     5    2.3275E+05 -5.0073E+02   2.3325E+05  0.000E+00  0.000E+00  0.000E+00  3.41994E+01  1.994E-01  2.000E+01  2.000E+04 -2.504E-02
   1   16   27     3     6    2.3325E+05  3.9302E+02   2.3286E+05  0.000E+00  0.000E+00  0.000E+00  3.33105E+01  1.994E-01  2.000E+01  2.000E+04  1.965E-02
   1   17   28     3     7    2.3286E+05 -3.2149E+02   2.3318E+05  0.000E+00  0.000E+00  0.000E+00  3.24216E+01  1.994E-01  2.000E+01  2.000E+04 -1.607E-02
   1   18   29     3     8    2.3318E+05 -2.1701E+03   2.3535E+05  0.000E+00  0.000E+00  0.000E+00  3.15334E+01  2.000E-01  2.000E+01  2.000E+04 -1.085E-01
   1   18   30     3     9    2.3535E+05 -3.3187E+03   2.3867E+05  0.000E+00  0.000E+00  0.000E+00  3.06459E+01  2.014E-01  2.000E+01  2.000E+04 -1.659E-01



1
              HEAD IN LAYER   1 AT END OF TIME STEP   1 IN STRESS PERIOD    9
  ---------------------------------------------------------------------------

          1      2      3      4      5      6      7      8      9     10
         11     12     13     14     15     16     17     18     19     20
         21     22     23     24     25     26     27     28     29     30
 .........................................................................
   1  ****** ****** ****** ****** ****** ****** ****** ****** ****** ******
      ****** ****** ****** ****** ****** ****** ****** ****** ****** ******
      ****** ****** ****** ****** ****** ****** ****** ****** ****** ******
   2  ****** ****** ****** ****** ****** ****** ****** ****** ****** ******
      ****** ****** ****** ****** ****** ****** ****** ****** ****** ******
      ****** ****** ****** ****** ****** ****** ****** ****** ****** ******
   3  ****** ****** ****** ****** ****** ****** ****** ****** ****** ******
      ****** ****** ****** ****** ****** ****** ****** ****** ****** ******
      ****** ****** ****** ****** ****** ****** ****** ****** ****** ******
   4  ****** ****** ****** ****** ****** ****** ****** ****** ****** ******
      ****** ****** ****** ****** ****** ****** ****** ****** ****** ******
      ****** ****** ****** ****** ****** ****** ****** ****** ****** ******
   5  ****** ****** ****** ****** ****** ****** ****** ****** ****** ******
      ****** ****** ****** ****** ****** ****** ****** ****** ****** ******
      ****** ****** ****** ****** ****** ****** ****** ****** ****** ******
   6  ****** ****** ****** ****** ****** ****** ****** ****** ****** ******
      ****** ****** ****** ****** ****** ****** ****** ****** ****** ******
      ****** ****** ****** ****** ****** ****** ****** ****** ****** ******
   7  ****** ****** ****** ****** ****** ****** ****** ****** ****** ******
      ****** ****** ****** ****** ****** ****** ****** ****** ****** ******
      ****** ****** ****** ****** ****** ****** ****** ****** ****** ******
   8  ****** ****** ****** ****** ****** ****** ****** ****** ****** ******
      ****** ****** ****** ****** ****** ****** ****** ****** ****** ******
      ****** ****** ****** ****** ****** ****** ****** ****** ****** ******
   9  ****** ****** ****** ****** ****** ****** ****** ****** ****** ******
      ****** ****** ****** ****** ****** ****** ****** ****** ****** ******
      ****** ****** ****** ****** ****** ****** ****** ****** ****** ******
  10  ****** ****** ****** ****** ****** ****** ****** ****** ****** ******
      ****** ****** ****** ****** ****** ****** ****** ****** ****** ******
      ****** ****** ****** ****** ****** ****** ****** ****** ****** ******
  11  ****** ****** ****** ****** ****** ****** ****** ****** ****** ******
      ****** ****** ****** ****** ****** ****** ****** ****** ****** ******
      ****** ****** ****** ****** ****** ****** ****** ****** ****** ******
  12  ****** ****** ****** ****** ****** ****** ****** ****** ****** ******
      ****** ****** ****** ****** ****** ****** ****** ****** ****** ******
      ****** ****** ****** ****** ****** ****** ****** ****** ****** ******
  13  ****** ****** ****** ****** ****** ****** ****** ****** ****** ******
      ****** ****** ****** ****** ****** ****** ****** ****** ****** ******
      ****** ****** ****** ****** ****** ****** ****** ****** ****** ******
  14  ****** ****** ****** ****** ****** ****** ****** ****** ****** ******
      ****** ****** ****** ****** ****** ****** ****** ****** ****** ******
      ****** ****** ****** ****** ****** ****** ****** ****** ****** ******
  15  ****** ****** ****** ****** ****** ****** ****** ****** ****** ******
      ****** ****** ****** ****** ****** ****** ****** ****** ****** ******
      ****** ****** ****** ****** ****** ****** ****** ****** ****** ******
  16  ****** ****** ****** ****** ****** ****** ****** ****** ****** ******
      ****** ****** ****** ****** ****** ****** ****** ****** ****** ******
      ****** ****** ****** ****** ****** ****** ****** ****** ****** ******
  17  ****** ****** ****** ****** ****** ****** ****** ****** ****** ******
      ****** ****** ****** ****** ****** ****** ****** ****** ****** ******
      ****** ****** ****** ****** ****** ****** ****** ****** ****** ******
  18  ****** ****** ****** ****** ****** ****** ****** ****** ****** ******
      ****** ****** ****** ****** ****** ****** ****** ****** ****** ******
      ****** ****** ****** ****** ****** ****** ****** ****** ****** ******
  19  ****** ****** ****** ****** ****** ****** ****** ****** ****** ******
      ****** ****** ****** ****** ****** ****** ****** ****** ****** ******
      ****** ****** ****** ****** ****** ****** ****** ****** ****** ******
  20  ****** ****** ****** ****** ****** ****** ****** ****** ****** ******
      ****** ****** ****** ****** ****** ****** ****** ****** ****** ******
      ****** ****** ****** ****** ****** ****** ****** ****** ****** ******
  21  ****** ****** ****** ****** ****** ****** ****** ****** ****** ******
      ****** ****** ****** ****** ****** ****** ****** ****** ****** ******
      ****** ****** ****** ****** ****** ****** ****** ****** ****** ******
  22  ****** ****** ****** ****** ****** ****** ****** ****** ****** ******
      ****** ****** ****** ****** ****** ****** ****** ****** ****** ******
      ****** ****** ****** ****** ****** ****** ****** ****** ****** ******
  23  ****** ****** ****** ****** ****** ****** ****** ****** ****** ******
      ****** ****** ****** ****** ****** ****** ****** ****** ****** ******
      ****** ****** ****** ****** ****** ****** ****** ****** ****** ******
  24  ****** ****** ****** ****** ****** ****** ****** ****** ****** ******
      ****** ****** ****** ****** ****** ****** ****** ****** ****** ******
      ****** ****** ****** ****** ****** ****** ****** ****** ****** ******
  25  ****** ****** ****** ****** ****** ****** ****** ****** ****** ******
      ****** ****** ****** ****** ****** ****** ****** ****** ****** ******
      ****** ****** ****** ****** ****** ****** ****** ****** ****** ******

 HEAD WILL BE SAVED ON UNIT   51 AT END OF TIME STEP    1, STRESS PERIOD    9
1
  VOLUMETRIC BUDGET FOR ENTIRE MODEL AT END OF TIME STEP    1, STRESS PERIOD   9
  ------------------------------------------------------------------------------

     CUMULATIVE VOLUMES      L**3       RATES FOR THIS TIME STEP      L**3/T
     ------------------                 ------------------------

           IN:                                      IN:
           ---                                      ---
             STORAGE =    25427391.3397               STORAGE =        2681.2847
       CONSTANT HEAD =   112829701.1453         CONSTANT HEAD =      148538.3397
               WELLS =           0.0000                 WELLS =           0.0000
            RECHARGE =    18878400.0000              RECHARGE =       13800.0000
      STREAM LEAKAGE =    10328848.7689        STREAM LEAKAGE =       14577.2108

            TOTAL IN =   167464341.2539              TOTAL IN =      179596.8353

          OUT:                                     OUT:
          ----                                     ----
             STORAGE =     1269972.2303               STORAGE =           0.0000
       CONSTANT HEAD =           0.0000         CONSTANT HEAD =           0.0000
               WELLS =    62758106.0902                 WELLS =       76348.0609
            RECHARGE =           0.0000              RECHARGE =           0.0000
      STREAM LEAKAGE =   103436263.8988        STREAM LEAKAGE =      103248.7774

           TOTAL OUT =   167464342.2193             TOTAL OUT =      179596.8384

            IN - OUT =          -0.9654              IN - OUT =      -3.0706E-03

 PERCENT DISCREPANCY =          -0.00     PERCENT DISCREPANCY =          -0.00






         TIME SUMMARY AT END OF TIME STEP    1 IN STRESS PERIOD    9
                    SECONDS     MINUTES      HOURS       DAYS        YEARS
                    -----------------------------------------------------------
   TIME STEP LENGTH 7.94880E+06 1.32480E+05  2208.0      92.000     0.25188    
 STRESS PERIOD TIME 7.94880E+06 1.32480E+05  2208.0      92.000     0.25188    
         TOTAL TIME 7.10208E+07 1.18368E+06  19728.      822.00      2.2505    
1
1
                            STRESS PERIOD NO.   10, LENGTH =   91.00000    
                            -----------------------------------------------

                              NUMBER OF TIME STEPS =     1

                               MULTIPLIER FOR DELT =     1.500

                            INITIAL TIME STEP SIZE =   91.00000    

 WELL NO.  LAYER   ROW   COL   STRESS RATE         
 --------------------------------------------------
      1      1     21     23     -0.1821E+05
      2      1     20     24     -0.1241E+05
      3      1     19     20     -0.2382E+05
      4      1     19     24     -0.2191E+05

      4 WELLS

                 RECHARGE =  2.000000E-03

 REUSING STREAM SEGMENT DATA FROM LAST STRESS PERIOD
 
 SOLVING FOR HEAD 


     7 CALLS TO PCG ROUTINE FOR TIME STEP   1 IN STRESS PERIOD   10
    26 TOTAL ITERATIONS

 OUTPUT CONTROL FOR STRESS PERIOD   10   TIME STEP    1
    SAVE BUDGET
    SAVE HEAD FOR ALL LAYERS
    PRINT HEAD FOR ALL LAYERS
 UBDSV2 SAVING "STREAMFLOW OUT  " ON UNIT  50 AT TIME STEP  1, STRESS PERIOD  10



 STREAM LISTING     PERIOD     10   STEP        1

 LAYER ROW COL. STREAM  RCH.  FLOW INTO     FLOW TO   FLOW OUT OF   OVRLND.     DIRECT     STREAM       STREAM     STREAM     STREAM   STREAMBED  STREAMBED
                SEG.NO.  NO.  STRM. RCH.    AQUIFER    STRM. RCH.    RUNOFF     PRECIP       ET          HEAD       DEPTH      WIDTH   CONDCTNC.   GRADIENT

   1   13    1     1     1    1.0000E+05 -3.1721E+03   1.0317E+05  0.000E+00  0.000E+00  0.000E+00  4.84074E+01  1.460E-01  2.000E+01  2.000E+04 -1.586E-01
   1   13    2     1     2    1.0317E+05 -5.2082E+03   1.0838E+05  0.000E+00  0.000E+00  0.000E+00  4.79337E+01  1.496E-01  2.000E+01  2.000E+04 -2.604E-01
   1   14    3     1     3    1.0838E+05 -4.2709E+03   1.1265E+05  0.000E+00  0.000E+00  0.000E+00  4.74604E+01  1.536E-01  2.000E+01  2.000E+04 -2.135E-01
   1   15    4     1     4    1.1265E+05 -4.1640E+03   1.1682E+05  0.000E+00  0.000E+00  0.000E+00  4.69866E+01  1.571E-01  2.000E+01  2.000E+04 -2.082E-01
   1   16    5     1     5    1.1682E+05 -4.4377E+03   1.2125E+05  0.000E+00  0.000E+00  0.000E+00  4.65129E+01  1.606E-01  2.000E+01  2.000E+04 -2.219E-01
   1   16    6     1     6    1.2125E+05 -3.4997E+03   1.2475E+05  0.000E+00  0.000E+00  0.000E+00  4.60388E+01  1.638E-01  2.000E+01  2.000E+04 -1.750E-01
   1   16    7     1     7    1.2475E+05 -3.5558E+03   1.2831E+05  0.000E+00  0.000E+00  0.000E+00  4.55643E+01  1.666E-01  2.000E+01  2.000E+04 -1.778E-01
   1   16    8     1     8    1.2831E+05 -3.5711E+03   1.3188E+05  0.000E+00  0.000E+00  0.000E+00  4.50898E+01  1.694E-01  2.000E+01  2.000E+04 -1.786E-01
   1   16    9     1     9    1.3188E+05 -3.5268E+03   1.3541E+05  0.000E+00  0.000E+00  0.000E+00  4.46153E+01  1.721E-01  2.000E+01  2.000E+04 -1.763E-01
   1   16   10     1    10    1.3541E+05 -3.4162E+03   1.3882E+05  0.000E+00  0.000E+00  0.000E+00  4.41407E+01  1.748E-01  2.000E+01  2.000E+04 -1.708E-01
   1   16   11     1    11    1.3882E+05 -3.2353E+03   1.4206E+05  0.000E+00  0.000E+00  0.000E+00  4.36660E+01  1.773E-01  2.000E+01  2.000E+04 -1.618E-01
   1   16   12     1    12    1.4206E+05 -3.6801E+03   1.4574E+05  0.000E+00  0.000E+00  0.000E+00  4.31913E+01  1.800E-01  2.000E+01  2.000E+04 -1.840E-01
   1   15   13     1    13    1.4574E+05 -3.3648E+03   1.4910E+05  0.000E+00  0.000E+00  0.000E+00  4.27167E+01  1.826E-01  2.000E+01  2.000E+04 -1.682E-01
   1   14   14     1    14    1.4910E+05 -3.4213E+03   1.5252E+05  0.000E+00  0.000E+00  0.000E+00  4.22419E+01  1.851E-01  2.000E+01  2.000E+04 -1.711E-01
   1   13   15     1    15    1.5252E+05 -3.8533E+03   1.5638E+05  0.000E+00  0.000E+00  0.000E+00  4.17673E+01  1.878E-01  2.000E+01  2.000E+04 -1.927E-01
   1   12   16     1    16    1.5638E+05 -5.4929E+03   1.6187E+05  0.000E+00  0.000E+00  0.000E+00  4.12934E+01  1.911E-01  2.000E+01  2.000E+04 -2.746E-01
   1   12   17     1    17    1.6187E+05 -3.3358E+03   1.6521E+05  0.000E+00  0.000E+00  0.000E+00  4.08193E+01  1.943E-01  2.000E+01  2.000E+04 -1.668E-01
   1   12   18     1    18    1.6521E+05 -3.1227E+03   1.6833E+05  0.000E+00  0.000E+00  0.000E+00  4.03443E+01  1.966E-01  2.000E+01  2.000E+04 -1.561E-01
   1   12   19     1    19    1.6833E+05 -4.3471E+03   1.7268E+05  0.000E+00  0.000E+00  0.000E+00  3.98697E+01  1.992E-01  2.000E+01  2.000E+04 -2.174E-01
   1   13   20     1    20    1.7268E+05 -1.7672E+03   1.7444E+05  0.000E+00  0.000E+00  0.000E+00  3.93946E+01  2.014E-01  2.000E+01  2.000E+04 -8.836E-02
   1   14   21     1    21    1.7444E+05  7.3606E+02   1.7371E+05  0.000E+00  0.000E+00  0.000E+00  3.89176E+01  2.017E-01  2.000E+01  2.000E+04  3.680E-02
   1   14   22     1    22    1.7371E+05  5.5608E+03   1.6815E+05  0.000E+00  0.000E+00  0.000E+00  3.84382E+01  1.995E-01  2.000E+01  2.000E+04  2.780E-01
   1    9   30     2     1    5.0000E+04 -3.0352E+03   5.3035E+04  0.000E+00  0.000E+00  0.000E+00  4.02430E+01  1.180E-01  2.000E+01  2.000E+04 -1.518E-01
   1    9   29     2     2    5.3035E+04 -3.3654E+03   5.6401E+04  0.000E+00  0.000E+00  0.000E+00  3.99973E+01  1.223E-01  2.000E+01  2.000E+04 -1.683E-01
   1    9   28     2     3    5.6401E+04 -3.7456E+03   6.0146E+04  0.000E+00  0.000E+00  0.000E+00  3.97520E+01  1.270E-01  2.000E+01  2.000E+04 -1.873E-01
   1    9   27     2     4    6.0146E+04 -6.5653E+03   6.6711E+04  0.000E+00  0.000E+00  0.000E+00  3.95086E+01  1.336E-01  2.000E+01  2.000E+04 -3.283E-01
   1   10   26     2     5    6.6711E+04 -4.2003E+03   7.0912E+04  0.000E+00  0.000E+00  0.000E+00  3.92653E+01  1.403E-01  2.000E+01  2.000E+04 -2.100E-01
   1   11   25     2     6    7.0912E+04 -3.1329E+03   7.4045E+04  0.000E+00  0.000E+00  0.000E+00  3.90198E+01  1.448E-01  2.000E+01  2.000E+04 -1.566E-01
   1   12   24     2     7    7.4045E+04 -2.2328E+03   7.6277E+04  0.000E+00  0.000E+00  0.000E+00  3.87730E+01  1.480E-01  2.000E+01  2.000E+04 -1.116E-01
   1   13   23     2     8    7.6277E+04 -1.3002E+03   7.7578E+04  0.000E+00  0.000E+00  0.000E+00  3.85250E+01  1.500E-01  2.000E+01  2.000E+04 -6.501E-02
   1   14   22     2     9    7.7578E+04  2.2868E+03   7.5291E+04  0.000E+00  0.000E+00  0.000E+00  3.82745E+01  1.495E-01  2.000E+01  2.000E+04  1.143E-01
   1   14   22     3     1    2.4344E+05 -7.9572E+03   2.5139E+05  0.000E+00  0.000E+00  0.000E+00  3.77623E+01  2.067E-01  2.000E+01  2.000E+04 -3.979E-01
   1   15   23     3     2    2.5139E+05  2.2032E+03   2.4919E+05  0.000E+00  0.000E+00  0.000E+00  3.68748E+01  2.081E-01  2.000E+01  2.000E+04  1.102E-01
   1   15   24     3     3    2.4919E+05  1.2005E+03   2.4799E+05  0.000E+00  0.000E+00  0.000E+00  3.59851E+01  2.073E-01  2.000E+01  2.000E+04  6.003E-02
   1   15   25     3     4    2.4799E+05  5.4617E+02   2.4744E+05  0.000E+00  0.000E+00  0.000E+00  3.50957E+01  2.069E-01  2.000E+01  2.000E+04  2.731E-02
   1   15   26     3     5    2.4744E+05 -8.7532E+02   2.4832E+05  0.000E+00  0.000E+00  0.000E+00  3.42069E+01  2.069E-01  2.000E+01  2.000E+04 -4.377E-02
   1   16   27     3     6    2.4832E+05 -7.8534E+01   2.4840E+05  0.000E+00  0.000E+00  0.000E+00  3.33183E+01  2.072E-01  2.000E+01  2.000E+04 -3.927E-03
   1   17   28     3     7    2.4840E+05 -8.0321E+02   2.4920E+05  0.000E+00  0.000E+00  0.000E+00  3.24296E+01  2.074E-01  2.000E+01  2.000E+04 -4.016E-02
   1   18   29     3     8    2.4920E+05 -2.6229E+03   2.5182E+05  0.000E+00  0.000E+00  0.000E+00  3.15416E+01  2.083E-01  2.000E+01  2.000E+04 -1.311E-01
   1   18   30     3     9    2.5182E+05 -3.6590E+03   2.5548E+05  0.000E+00  0.000E+00  0.000E+00  3.06543E+01  2.098E-01  2.000E+01  2.000E+04 -1.829E-01



1
              HEAD IN LAYER   1 AT END OF TIME STEP   1 IN STRESS PERIOD   10
  ---------------------------------------------------------------------------

          1      2      3      4      5      6      7      8      9     10
         11     12     13     14     15     16     17     18     19     20
         21     22     23     24     25     26     27     28     29     30
 .........................................................................
   1  ****** ****** ****** ****** ****** ****** ****** ****** ****** ******
      ****** ****** ****** ****** ****** ****** ****** ****** ****** ******
      ****** ****** ****** ****** ****** ****** ****** ****** ****** ******
   2  ****** ****** ****** ****** ****** ****** ****** ****** ****** ******
      ****** ****** ****** ****** ****** ****** ****** ****** ****** ******
      ****** ****** ****** ****** ****** ****** ****** ****** ****** ******
   3  ****** ****** ****** ****** ****** ****** ****** ****** ****** ******
      ****** ****** ****** ****** ****** ****** ****** ****** ****** ******
      ****** ****** ****** ****** ****** ****** ****** ****** ****** ******
   4  ****** ****** ****** ****** ****** ****** ****** ****** ****** ******
      ****** ****** ****** ****** ****** ****** ****** ****** ****** ******
      ****** ****** ****** ****** ****** ****** ****** ****** ****** ******
   5  ****** ****** ****** ****** ****** ****** ****** ****** ****** ******
      ****** ****** ****** ****** ****** ****** ****** ****** ****** ******
      ****** ****** ****** ****** ****** ****** ****** ****** ****** ******
   6  ****** ****** ****** ****** ****** ****** ****** ****** ****** ******
      ****** ****** ****** ****** ****** ****** ****** ****** ****** ******
      ****** ****** ****** ****** ****** ****** ****** ****** ****** ******
   7  ****** ****** ****** ****** ****** ****** ****** ****** ****** ******
      ****** ****** ****** ****** ****** ****** ****** ****** ****** ******
      ****** ****** ****** ****** ****** ****** ****** ****** ****** ******
   8  ****** ****** ****** ****** ****** ****** ****** ****** ****** ******
      ****** ****** ****** ****** ****** ****** ****** ****** ****** ******
      ****** ****** ****** ****** ****** ****** ****** ****** ****** ******
   9  ****** ****** ****** ****** ****** ****** ****** ****** ****** ******
      ****** ****** ****** ****** ****** ****** ****** ****** ****** ******
      ****** ****** ****** ****** ****** ****** ****** ****** ****** ******
  10  ****** ****** ****** ****** ****** ****** ****** ****** ****** ******
      ****** ****** ****** ****** ****** ****** ****** ****** ****** ******
      ****** ****** ****** ****** ****** ****** ****** ****** ****** ******
  11  ****** ****** ****** ****** ****** ****** ****** ****** ****** ******
      ****** ****** ****** ****** ****** ****** ****** ****** ****** ******
      ****** ****** ****** ****** ****** ****** ****** ****** ****** ******
  12  ****** ****** ****** ****** ****** ****** ****** ****** ****** ******
      ****** ****** ****** ****** ****** ****** ****** ****** ****** ******
      ****** ****** ****** ****** ****** ****** ****** ****** ****** ******
  13  ****** ****** ****** ****** ****** ****** ****** ****** ****** ******
      ****** ****** ****** ****** ****** ****** ****** ****** ****** ******
      ****** ****** ****** ****** ****** ****** ****** ****** ****** ******
  14  ****** ****** ****** ****** ****** ****** ****** ****** ****** ******
      ****** ****** ****** ****** ****** ****** ****** ****** ****** ******
      ****** ****** ****** ****** ****** ****** ****** ****** ****** ******
  15  ****** ****** ****** ****** ****** ****** ****** ****** ****** ******
      ****** ****** ****** ****** ****** ****** ****** ****** ****** ******
      ****** ****** ****** ****** ****** ****** ****** ****** ****** ******
  16  ****** ****** ****** ****** ****** ****** ****** ****** ****** ******
      ****** ****** ****** ****** ****** ****** ****** ****** ****** ******
      ****** ****** ****** ****** ****** ****** ****** ****** ****** ******
  17  ****** ****** ****** ****** ****** ****** ****** ****** ****** ******
      ****** ****** ****** ****** ****** ****** ****** ****** ****** ******
      ****** ****** ****** ****** ****** ****** ****** ****** ****** ******
  18  ****** ****** ****** ****** ****** ****** ****** ****** ****** ******
      ****** ****** ****** ****** ****** ****** ****** ****** ****** ******
      ****** ****** ****** ****** ****** ****** ****** ****** ****** ******
  19  ****** ****** ****** ****** ****** ****** ****** ****** ****** ******
      ****** ****** ****** ****** ****** ****** ****** ****** ****** ******
      ****** ****** ****** ****** ****** ****** ****** ****** ****** ******
  20  ****** ****** ****** ****** ****** ****** ****** ****** ****** ******
      ****** ****** ****** ****** ****** ****** ****** ****** ****** ******
      ****** ****** ****** ****** ****** ****** ****** ****** ****** ******
  21  ****** ****** ****** ****** ****** ****** ****** ****** ****** ******
      ****** ****** ****** ****** ****** ****** ****** ****** ****** ******
      ****** ****** ****** ****** ****** ****** ****** ****** ****** ******
  22  ****** ****** ****** ****** ****** ****** ****** ****** ****** ******
      ****** ****** ****** ****** ****** ****** ****** ****** ****** ******
      ****** ****** ****** ****** ****** ****** ****** ****** ****** ******
  23  ****** ****** ****** ****** ****** ****** ****** ****** ****** ******
      ****** ****** ****** ****** ****** ****** ****** ****** ****** ******
      ****** ****** ****** ****** ****** ****** ****** ****** ****** ******
  24  ****** ****** ****** ****** ****** ****** ****** ****** ****** ******
      ****** ****** ****** ****** ****** ****** ****** ****** ****** ******
      ****** ****** ****** ****** ****** ****** ****** ****** ****** ******
  25  ****** ****** ****** ****** ****** ****** ****** ****** ****** ******
      ****** ****** ****** ****** ****** ****** ****** ****** ****** ******
      ****** ****** ****** ****** ****** ****** ****** ****** ****** ******

 HEAD WILL BE SAVED ON UNIT   51 AT END OF TIME STEP    1, STRESS PERIOD   10
1
  VOLUMETRIC BUDGET FOR ENTIRE MODEL AT END OF TIME STEP    1, STRESS PERIOD  10
  ------------------------------------------------------------------------------

     CUMULATIVE VOLUMES      L**3       RATES FOR THIS TIME STEP      L**3/T
     ------------------                 ------------------------

           IN:                                      IN:
           ---                                      ---
             STORAGE =    25427391.3397               STORAGE =           0.0000
       CONSTANT HEAD =   125332158.3540         CONSTANT HEAD =      137389.6397
               WELLS =           0.0000                 WELLS =           0.0000
            RECHARGE =    23901600.0000              RECHARGE =       55200.0000
      STREAM LEAKAGE =    11469411.2802        STREAM LEAKAGE =       12533.6540

            TOTAL IN =   186130560.9739              TOTAL IN =      205123.2936

          OUT:                                     OUT:
          ----                                     ----
             STORAGE =     2248988.3644               STORAGE =       10758.4191
       CONSTANT HEAD =           0.0000         CONSTANT HEAD =           0.0000
               WELLS =    69705779.6354                 WELLS =       76348.0609
            RECHARGE =           0.0000              RECHARGE =           0.0000
      STREAM LEAKAGE =   114175793.7827        STREAM LEAKAGE =      118016.8119

           TOTAL OUT =   186130561.7825             TOTAL OUT =      205123.2919

            IN - OUT =          -0.8086              IN - OUT =       1.7228E-03

 PERCENT DISCREPANCY =          -0.00     PERCENT DISCREPANCY =           0.00






         TIME SUMMARY AT END OF TIME STEP    1 IN STRESS PERIOD   10
                    SECONDS     MINUTES      HOURS       DAYS        YEARS
                    -----------------------------------------------------------
   TIME STEP LENGTH 7.86240E+06 1.31040E+05  2184.0      91.000     0.24914    
 STRESS PERIOD TIME 7.86240E+06 1.31040E+05  2184.0      91.000     0.24914    
         TOTAL TIME 7.88832E+07 1.31472E+06  21912.      913.00      2.4997    
1
1
                            STRESS PERIOD NO.   11, LENGTH =   91.00000    
                            -----------------------------------------------

                              NUMBER OF TIME STEPS =     1

                               MULTIPLIER FOR DELT =     1.500

                            INITIAL TIME STEP SIZE =   91.00000    

 WELL NO.  LAYER   ROW   COL   STRESS RATE         
 --------------------------------------------------
      1      1     21     23     -0.1821E+05
      2      1     20     24     -0.1241E+05
      3      1     19     20     -0.2382E+05
      4      1     19     24     -0.2191E+05

      4 WELLS

                 RECHARGE =   0.00000    

 REUSING STREAM SEGMENT DATA FROM LAST STRESS PERIOD
 
 SOLVING FOR HEAD 


     7 CALLS TO PCG ROUTINE FOR TIME STEP   1 IN STRESS PERIOD   11
    26 TOTAL ITERATIONS

 OUTPUT CONTROL FOR STRESS PERIOD   11   TIME STEP    1
    SAVE BUDGET
    SAVE HEAD FOR ALL LAYERS
    PRINT HEAD FOR ALL LAYERS
 UBDSV2 SAVING "STREAMFLOW OUT  " ON UNIT  50 AT TIME STEP  1, STRESS PERIOD  11



 STREAM LISTING     PERIOD     11   STEP        1

 LAYER ROW COL. STREAM  RCH.  FLOW INTO     FLOW TO   FLOW OUT OF   OVRLND.     DIRECT     STREAM       STREAM     STREAM     STREAM   STREAMBED  STREAMBED
                SEG.NO.  NO.  STRM. RCH.    AQUIFER    STRM. RCH.    RUNOFF     PRECIP       ET          HEAD       DEPTH      WIDTH   CONDCTNC.   GRADIENT

   1   13    1     1     1    1.0000E+05 -2.6879E+03   1.0269E+05  0.000E+00  0.000E+00  0.000E+00  4.84072E+01  1.458E-01  2.000E+01  2.000E+04 -1.344E-01
   1   13    2     1     2    1.0269E+05 -4.5752E+03   1.0726E+05  0.000E+00  0.000E+00  0.000E+00  4.79330E+01  1.489E-01  2.000E+01  2.000E+04 -2.288E-01
   1   14    3     1     3    1.0726E+05 -3.6161E+03   1.1088E+05  0.000E+00  0.000E+00  0.000E+00  4.74592E+01  1.524E-01  2.000E+01  2.000E+04 -1.808E-01
   1   15    4     1     4    1.1088E+05 -3.5124E+03   1.1439E+05  0.000E+00  0.000E+00  0.000E+00  4.69849E+01  1.554E-01  2.000E+01  2.000E+04 -1.756E-01
   1   16    5     1     5    1.1439E+05 -3.8361E+03   1.1823E+05  0.000E+00  0.000E+00  0.000E+00  4.65107E+01  1.584E-01  2.000E+01  2.000E+04 -1.918E-01
   1   16    6     1     6    1.1823E+05 -3.0239E+03   1.2125E+05  0.000E+00  0.000E+00  0.000E+00  4.60362E+01  1.612E-01  2.000E+01  2.000E+04 -1.512E-01
   1   16    7     1     7    1.2125E+05 -3.0731E+03   1.2432E+05  0.000E+00  0.000E+00  0.000E+00  4.55613E+01  1.636E-01  2.000E+01  2.000E+04 -1.537E-01
   1   16    8     1     8    1.2432E+05 -3.0844E+03   1.2741E+05  0.000E+00  0.000E+00  0.000E+00  4.50865E+01  1.661E-01  2.000E+01  2.000E+04 -1.542E-01
   1   16    9     1     9    1.2741E+05 -3.0402E+03   1.3045E+05  0.000E+00  0.000E+00  0.000E+00  4.46117E+01  1.685E-01  2.000E+01  2.000E+04 -1.520E-01
   1   16   10     1    10    1.3045E+05 -2.9337E+03   1.3338E+05  0.000E+00  0.000E+00  0.000E+00  4.41367E+01  1.708E-01  2.000E+01  2.000E+04 -1.467E-01
   1   16   11     1    11    1.3338E+05 -2.7591E+03   1.3614E+05  0.000E+00  0.000E+00  0.000E+00  4.36616E+01  1.730E-01  2.000E+01  2.000E+04 -1.380E-01
   1   16   12     1    12    1.3614E+05 -3.0704E+03   1.3921E+05  0.000E+00  0.000E+00  0.000E+00  4.31866E+01  1.752E-01  2.000E+01  2.000E+04 -1.535E-01
   1   15   13     1    13    1.3921E+05 -2.7010E+03   1.4191E+05  0.000E+00  0.000E+00  0.000E+00  4.27115E+01  1.774E-01  2.000E+01  2.000E+04 -1.351E-01
   1   14   14     1    14    1.4191E+05 -2.7464E+03   1.4466E+05  0.000E+00  0.000E+00  0.000E+00  4.22363E+01  1.795E-01  2.000E+01  2.000E+04 -1.373E-01
   1   13   15     1    15    1.4466E+05 -3.1904E+03   1.4785E+05  0.000E+00  0.000E+00  0.000E+00  4.17613E+01  1.817E-01  2.000E+01  2.000E+04 -1.595E-01
   1   12   16     1    16    1.4785E+05 -4.8654E+03   1.5272E+05  0.000E+00  0.000E+00  0.000E+00  4.12870E+01  1.847E-01  2.000E+01  2.000E+04 -2.433E-01
   1   12   17     1    17    1.5272E+05 -2.8624E+03   1.5558E+05  0.000E+00  0.000E+00  0.000E+00  4.08125E+01  1.875E-01  2.000E+01  2.000E+04 -1.431E-01
   1   12   18     1    18    1.5558E+05 -2.6559E+03   1.5823E+05  0.000E+00  0.000E+00  0.000E+00  4.03373E+01  1.895E-01  2.000E+01  2.000E+04 -1.328E-01
   1   12   19     1    19    1.5823E+05 -3.7779E+03   1.6201E+05  0.000E+00  0.000E+00  0.000E+00  3.98623E+01  1.919E-01  2.000E+01  2.000E+04 -1.889E-01
   1   13   20     1    20    1.6201E+05 -1.2042E+03   1.6322E+05  0.000E+00  0.000E+00  0.000E+00  3.93868E+01  1.937E-01  2.000E+01  2.000E+04 -6.021E-02
   1   14   21     1    21    1.6322E+05  1.2513E+03   1.6196E+05  0.000E+00  0.000E+00  0.000E+00  3.89095E+01  1.936E-01  2.000E+01  2.000E+04  6.257E-02
   1   14   22     1    22    1.6196E+05  5.6614E+03   1.5630E+05  0.000E+00  0.000E+00  0.000E+00  3.84298E+01  1.912E-01  2.000E+01  2.000E+04  2.831E-01
   1    9   30     2     1    5.0000E+04 -2.5937E+03   5.2594E+04  0.000E+00  0.000E+00  0.000E+00  4.02427E+01  1.177E-01  2.000E+01  2.000E+04 -1.297E-01
   1    9   29     2     2    5.2594E+04 -2.9277E+03   5.5521E+04  0.000E+00  0.000E+00  0.000E+00  3.99964E+01  1.214E-01  2.000E+01  2.000E+04 -1.464E-01
   1    9   28     2     3    5.5521E+04 -3.3114E+03   5.8833E+04  0.000E+00  0.000E+00  0.000E+00  3.97506E+01  1.256E-01  2.000E+01  2.000E+04 -1.656E-01
   1    9   27     2     4    5.8833E+04 -5.9935E+03   6.4826E+04  0.000E+00  0.000E+00  0.000E+00  3.95066E+01  1.316E-01  2.000E+01  2.000E+04 -2.997E-01
   1   10   26     2     5    6.4826E+04 -3.6026E+03   6.8429E+04  0.000E+00  0.000E+00  0.000E+00  3.92626E+01  1.376E-01  2.000E+01  2.000E+04 -1.801E-01
   1   11   25     2     6    6.8429E+04 -2.5585E+03   7.0987E+04  0.000E+00  0.000E+00  0.000E+00  3.90164E+01  1.414E-01  2.000E+01  2.000E+04 -1.279E-01
   1   12   24     2     7    7.0987E+04 -1.7215E+03   7.2709E+04  0.000E+00  0.000E+00  0.000E+00  3.87690E+01  1.440E-01  2.000E+01  2.000E+04 -8.608E-02
   1   13   23     2     8    7.2709E+04 -8.9727E+02   7.3606E+04  0.000E+00  0.000E+00  0.000E+00  3.85206E+01  1.456E-01  2.000E+01  2.000E+04 -4.486E-02
   1   14   22     2     9    7.3606E+04  2.4587E+03   7.1148E+04  0.000E+00  0.000E+00  0.000E+00  3.82697E+01  1.447E-01  2.000E+01  2.000E+04  1.229E-01
   1   14   22     3     1    2.2745E+05 -7.8521E+03   2.3530E+05  0.000E+00  0.000E+00  0.000E+00  3.77541E+01  1.986E-01  2.000E+01  2.000E+04 -3.926E-01
   1   15   23     3     2    2.3530E+05  2.6849E+03   2.3262E+05  0.000E+00  0.000E+00  0.000E+00  3.68666E+01  1.999E-01  2.000E+01  2.000E+04  1.342E-01
   1   15   24     3     3    2.3262E+05  1.5556E+03   2.3106E+05  0.000E+00  0.000E+00  0.000E+00  3.59766E+01  1.988E-01  2.000E+01  2.000E+04  7.778E-02
   1   15   25     3     4    2.3106E+05  9.0491E+02   2.3016E+05  0.000E+00  0.000E+00  0.000E+00  3.50871E+01  1.982E-01  2.000E+01  2.000E+04  4.525E-02
   1   15   26     3     5    2.3016E+05 -4.1110E+02   2.3057E+05  0.000E+00  0.000E+00  0.000E+00  3.41980E+01  1.980E-01  2.000E+01  2.000E+04 -2.056E-02
   1   16   27     3     6    2.3057E+05  4.9765E+02   2.3007E+05  0.000E+00  0.000E+00  0.000E+00  3.33091E+01  1.980E-01  2.000E+01  2.000E+04  2.488E-02
   1   17   28     3     7    2.3007E+05 -2.1651E+02   2.3029E+05  0.000E+00  0.000E+00  0.000E+00  3.24202E+01  1.979E-01  2.000E+01  2.000E+04 -1.083E-02
   1   18   29     3     8    2.3029E+05 -2.0760E+03   2.3236E+05  0.000E+00  0.000E+00  0.000E+00  3.15319E+01  1.985E-01  2.000E+01  2.000E+04 -1.038E-01
   1   18   30     3     9    2.3236E+05 -3.2420E+03   2.3561E+05  0.000E+00  0.000E+00  0.000E+00  3.06443E+01  1.999E-01  2.000E+01  2.000E+04 -1.621E-01



1
              HEAD IN LAYER   1 AT END OF TIME STEP   1 IN STRESS PERIOD   11
  ---------------------------------------------------------------------------

          1      2      3      4      5      6      7      8      9     10
         11     12     13     14     15     16     17     18     19     20
         21     22     23     24     25     26     27     28     29     30
 .........................................................................
   1  ****** ****** ****** ****** ****** ****** ****** ****** ****** ******
      ****** ****** ****** ****** ****** ****** ****** ****** ****** ******
      ****** ****** ****** ****** ****** ****** ****** ****** ****** ******
   2  ****** ****** ****** ****** ****** ****** ****** ****** ****** ******
      ****** ****** ****** ****** ****** ****** ****** ****** ****** ******
      ****** ****** ****** ****** ****** ****** ****** ****** ****** ******
   3  ****** ****** ****** ****** ****** ****** ****** ****** ****** ******
      ****** ****** ****** ****** ****** ****** ****** ****** ****** ******
      ****** ****** ****** ****** ****** ****** ****** ****** ****** ******
   4  ****** ****** ****** ****** ****** ****** ****** ****** ****** ******
      ****** ****** ****** ****** ****** ****** ****** ****** ****** ******
      ****** ****** ****** ****** ****** ****** ****** ****** ****** ******
   5  ****** ****** ****** ****** ****** ****** ****** ****** ****** ******
      ****** ****** ****** ****** ****** ****** ****** ****** ****** ******
      ****** ****** ****** ****** ****** ****** ****** ****** ****** ******
   6  ****** ****** ****** ****** ****** ****** ****** ****** ****** ******
      ****** ****** ****** ****** ****** ****** ****** ****** ****** ******
      ****** ****** ****** ****** ****** ****** ****** ****** ****** ******
   7  ****** ****** ****** ****** ****** ****** ****** ****** ****** ******
      ****** ****** ****** ****** ****** ****** ****** ****** ****** ******
      ****** ****** ****** ****** ****** ****** ****** ****** ****** ******
   8  ****** ****** ****** ****** ****** ****** ****** ****** ****** ******
      ****** ****** ****** ****** ****** ****** ****** ****** ****** ******
      ****** ****** ****** ****** ****** ****** ****** ****** ****** ******
   9  ****** ****** ****** ****** ****** ****** ****** ****** ****** ******
      ****** ****** ****** ****** ****** ****** ****** ****** ****** ******
      ****** ****** ****** ****** ****** ****** ****** ****** ****** ******
  10  ****** ****** ****** ****** ****** ****** ****** ****** ****** ******
      ****** ****** ****** ****** ****** ****** ****** ****** ****** ******
      ****** ****** ****** ****** ****** ****** ****** ****** ****** ******
  11  ****** ****** ****** ****** ****** ****** ****** ****** ****** ******
      ****** ****** ****** ****** ****** ****** ****** ****** ****** ******
      ****** ****** ****** ****** ****** ****** ****** ****** ****** ******
  12  ****** ****** ****** ****** ****** ****** ****** ****** ****** ******
      ****** ****** ****** ****** ****** ****** ****** ****** ****** ******
      ****** ****** ****** ****** ****** ****** ****** ****** ****** ******
  13  ****** ****** ****** ****** ****** ****** ****** ****** ****** ******
      ****** ****** ****** ****** ****** ****** ****** ****** ****** ******
      ****** ****** ****** ****** ****** ****** ****** ****** ****** ******
  14  ****** ****** ****** ****** ****** ****** ****** ****** ****** ******
      ****** ****** ****** ****** ****** ****** ****** ****** ****** ******
      ****** ****** ****** ****** ****** ****** ****** ****** ****** ******
  15  ****** ****** ****** ****** ****** ****** ****** ****** ****** ******
      ****** ****** ****** ****** ****** ****** ****** ****** ****** ******
      ****** ****** ****** ****** ****** ****** ****** ****** ****** ******
  16  ****** ****** ****** ****** ****** ****** ****** ****** ****** ******
      ****** ****** ****** ****** ****** ****** ****** ****** ****** ******
      ****** ****** ****** ****** ****** ****** ****** ****** ****** ******
  17  ****** ****** ****** ****** ****** ****** ****** ****** ****** ******
      ****** ****** ****** ****** ****** ****** ****** ****** ****** ******
      ****** ****** ****** ****** ****** ****** ****** ****** ****** ******
  18  ****** ****** ****** ****** ****** ****** ****** ****** ****** ******
      ****** ****** ****** ****** ****** ****** ****** ****** ****** ******
      ****** ****** ****** ****** ****** ****** ****** ****** ****** ******
  19  ****** ****** ****** ****** ****** ****** ****** ****** ****** ******
      ****** ****** ****** ****** ****** ****** ****** ****** ****** ******
      ****** ****** ****** ****** ****** ****** ****** ****** ****** ******
  20  ****** ****** ****** ****** ****** ****** ****** ****** ****** ******
      ****** ****** ****** ****** ****** ****** ****** ****** ****** ******
      ****** ****** ****** ****** ****** ****** ****** ****** ****** ******
  21  ****** ****** ****** ****** ****** ****** ****** ****** ****** ******
      ****** ****** ****** ****** ****** ****** ****** ****** ****** ******
      ****** ****** ****** ****** ****** ****** ****** ****** ****** ******
  22  ****** ****** ****** ****** ****** ****** ****** ****** ****** ******
      ****** ****** ****** ****** ****** ****** ****** ****** ****** ******
      ****** ****** ****** ****** ****** ****** ****** ****** ****** ******
  23  ****** ****** ****** ****** ****** ****** ****** ****** ****** ******
      ****** ****** ****** ****** ****** ****** ****** ****** ****** ******
      ****** ****** ****** ****** ****** ****** ****** ****** ****** ******
  24  ****** ****** ****** ****** ****** ****** ****** ****** ****** ******
      ****** ****** ****** ****** ****** ****** ****** ****** ****** ******
      ****** ****** ****** ****** ****** ****** ****** ****** ****** ******
  25  ****** ****** ****** ****** ****** ****** ****** ****** ****** ******
      ****** ****** ****** ****** ****** ****** ****** ****** ****** ******
      ****** ****** ****** ****** ****** ****** ****** ****** ****** ******

 HEAD WILL BE SAVED ON UNIT   51 AT END OF TIME STEP    1, STRESS PERIOD   11
1
  VOLUMETRIC BUDGET FOR ENTIRE MODEL AT END OF TIME STEP    1, STRESS PERIOD  11
  ------------------------------------------------------------------------------

     CUMULATIVE VOLUMES      L**3       RATES FOR THIS TIME STEP      L**3/T
     ------------------                 ------------------------

           IN:                                      IN:
           ---                                      ---
             STORAGE =    26505707.5487               STORAGE =       11849.6287
       CONSTANT HEAD =   138991621.6445         CONSTANT HEAD =      150103.9922
               WELLS =           0.0000                 WELLS =           0.0000
            RECHARGE =    23901600.0000              RECHARGE =           0.0000
      STREAM LEAKAGE =    12835727.4868        STREAM LEAKAGE =       15014.4638

            TOTAL IN =   202234656.6800              TOTAL IN =      176968.0847

          OUT:                                     OUT:
          ----                                     ----
             STORAGE =     2248988.3644               STORAGE =           0.0000
       CONSTANT HEAD =           0.0000         CONSTANT HEAD =           0.0000
               WELLS =    76653453.1807                 WELLS =       76348.0609
            RECHARGE =           0.0000              RECHARGE =           0.0000
      STREAM LEAKAGE =   123332216.1368        STREAM LEAKAGE =      100620.0259

           TOTAL OUT =   202234657.6819             TOTAL OUT =      176968.0868

            IN - OUT =          -1.0018              IN - OUT =      -2.1230E-03

 PERCENT DISCREPANCY =          -0.00     PERCENT DISCREPANCY =          -0.00






         TIME SUMMARY AT END OF TIME STEP    1 IN STRESS PERIOD   11
                    SECONDS     MINUTES      HOURS       DAYS        YEARS
                    -----------------------------------------------------------
   TIME STEP LENGTH 7.86240E+06 1.31040E+05  2184.0      91.000     0.24914    
 STRESS PERIOD TIME 7.86240E+06 1.31040E+05  2184.0      91.000     0.24914    
         TOTAL TIME 8.67456E+07 1.44576E+06  24096.      1004.0      2.7488    
1
1
                            STRESS PERIOD NO.   12, LENGTH =   91.00000    
                            -----------------------------------------------

                              NUMBER OF TIME STEPS =     1

                               MULTIPLIER FOR DELT =     1.500

                            INITIAL TIME STEP SIZE =   91.00000    

 WELL NO.  LAYER   ROW   COL   STRESS RATE         
 --------------------------------------------------
      1      1     21     23     -0.1821E+05
      2      1     20     24     -0.1241E+05
      3      1     19     20     -0.2382E+05
      4      1     19     24     -0.2191E+05

      4 WELLS

                 RECHARGE =  1.000000E-03

 REUSING STREAM SEGMENT DATA FROM LAST STRESS PERIOD
 
 SOLVING FOR HEAD 


     6 CALLS TO PCG ROUTINE FOR TIME STEP   1 IN STRESS PERIOD   12
    23 TOTAL ITERATIONS

 OUTPUT CONTROL FOR STRESS PERIOD   12   TIME STEP    1
    SAVE BUDGET
    SAVE HEAD FOR ALL LAYERS
    PRINT HEAD FOR ALL LAYERS
 UBDSV2 SAVING "STREAMFLOW OUT  " ON UNIT  50 AT TIME STEP  1, STRESS PERIOD  12



 STREAM LISTING     PERIOD     12   STEP        1

 LAYER ROW COL. STREAM  RCH.  FLOW INTO     FLOW TO   FLOW OUT OF   OVRLND.     DIRECT     STREAM       STREAM     STREAM     STREAM   STREAMBED  STREAMBED
                SEG.NO.  NO.  STRM. RCH.    AQUIFER    STRM. RCH.    RUNOFF     PRECIP       ET          HEAD       DEPTH      WIDTH   CONDCTNC.   GRADIENT

   1   13    1     1     1    1.0000E+05 -2.8614E+03   1.0286E+05  0.000E+00  0.000E+00  0.000E+00  4.84073E+01  1.459E-01  2.000E+01  2.000E+04 -1.431E-01
   1   13    2     1     2    1.0286E+05 -4.7933E+03   1.0765E+05  0.000E+00  0.000E+00  0.000E+00  4.79333E+01  1.492E-01  2.000E+01  2.000E+04 -2.397E-01
   1   14    3     1     3    1.0765E+05 -3.8551E+03   1.1151E+05  0.000E+00  0.000E+00  0.000E+00  4.74596E+01  1.528E-01  2.000E+01  2.000E+04 -1.928E-01
   1   15    4     1     4    1.1151E+05 -3.7535E+03   1.1526E+05  0.000E+00  0.000E+00  0.000E+00  4.69855E+01  1.560E-01  2.000E+01  2.000E+04 -1.877E-01
   1   16    5     1     5    1.1526E+05 -4.0586E+03   1.1932E+05  0.000E+00  0.000E+00  0.000E+00  4.65115E+01  1.592E-01  2.000E+01  2.000E+04 -2.029E-01
   1   16    6     1     6    1.1932E+05 -3.2010E+03   1.2252E+05  0.000E+00  0.000E+00  0.000E+00  4.60371E+01  1.621E-01  2.000E+01  2.000E+04 -1.601E-01
   1   16    7     1     7    1.2252E+05 -3.2521E+03   1.2578E+05  0.000E+00  0.000E+00  0.000E+00  4.55624E+01  1.647E-01  2.000E+01  2.000E+04 -1.626E-01
   1   16    8     1     8    1.2578E+05 -3.2645E+03   1.2904E+05  0.000E+00  0.000E+00  0.000E+00  4.50877E+01  1.673E-01  2.000E+01  2.000E+04 -1.632E-01
   1   16    9     1     9    1.2904E+05 -3.2203E+03   1.3226E+05  0.000E+00  0.000E+00  0.000E+00  4.46130E+01  1.698E-01  2.000E+01  2.000E+04 -1.610E-01
   1   16   10     1    10    1.3226E+05 -3.1126E+03   1.3537E+05  0.000E+00  0.000E+00  0.000E+00  4.41382E+01  1.723E-01  2.000E+01  2.000E+04 -1.556E-01
   1   16   11     1    11    1.3537E+05 -2.9360E+03   1.3831E+05  0.000E+00  0.000E+00  0.000E+00  4.36632E+01  1.746E-01  2.000E+01  2.000E+04 -1.468E-01
   1   16   12     1    12    1.3831E+05 -3.2933E+03   1.4160E+05  0.000E+00  0.000E+00  0.000E+00  4.31883E+01  1.770E-01  2.000E+01  2.000E+04 -1.647E-01
   1   15   13     1    13    1.4160E+05 -2.9444E+03   1.4455E+05  0.000E+00  0.000E+00  0.000E+00  4.27134E+01  1.793E-01  2.000E+01  2.000E+04 -1.472E-01
   1   14   14     1    14    1.4455E+05 -2.9924E+03   1.4754E+05  0.000E+00  0.000E+00  0.000E+00  4.22384E+01  1.816E-01  2.000E+01  2.000E+04 -1.496E-01
   1   13   15     1    15    1.4754E+05 -3.4310E+03   1.5097E+05  0.000E+00  0.000E+00  0.000E+00  4.17635E+01  1.839E-01  2.000E+01  2.000E+04 -1.715E-01
   1   12   16     1    16    1.5097E+05 -5.0849E+03   1.5605E+05  0.000E+00  0.000E+00  0.000E+00  4.12893E+01  1.871E-01  2.000E+01  2.000E+04 -2.542E-01
   1   12   17     1    17    1.5605E+05 -3.0361E+03   1.5909E+05  0.000E+00  0.000E+00  0.000E+00  4.08150E+01  1.900E-01  2.000E+01  2.000E+04 -1.518E-01
   1   12   18     1    18    1.5909E+05 -2.8292E+03   1.6192E+05  0.000E+00  0.000E+00  0.000E+00  4.03399E+01  1.921E-01  2.000E+01  2.000E+04 -1.415E-01
   1   12   19     1    19    1.6192E+05 -3.9893E+03   1.6591E+05  0.000E+00  0.000E+00  0.000E+00  3.98650E+01  1.946E-01  2.000E+01  2.000E+04 -1.995E-01
   1   13   20     1    20    1.6591E+05 -1.4230E+03   1.6733E+05  0.000E+00  0.000E+00  0.000E+00  3.93897E+01  1.965E-01  2.000E+01  2.000E+04 -7.115E-02
   1   14   21     1    21    1.6733E+05  1.0545E+03   1.6628E+05  0.000E+00  0.000E+00  0.000E+00  3.89125E+01  1.966E-01  2.000E+01  2.000E+04  5.272E-02
   1   14   22     1    22    1.6628E+05  5.6177E+03   1.6066E+05  0.000E+00  0.000E+00  0.000E+00  3.84329E+01  1.943E-01  2.000E+01  2.000E+04  2.809E-01
   1    9   30     2     1    5.0000E+04 -2.7732E+03   5.2773E+04  0.000E+00  0.000E+00  0.000E+00  4.02428E+01  1.178E-01  2.000E+01  2.000E+04 -1.387E-01
   1    9   29     2     2    5.2773E+04 -3.1053E+03   5.5878E+04  0.000E+00  0.000E+00  0.000E+00  3.99968E+01  1.218E-01  2.000E+01  2.000E+04 -1.553E-01
   1    9   28     2     3    5.5878E+04 -3.4865E+03   5.9365E+04  0.000E+00  0.000E+00  0.000E+00  3.97512E+01  1.262E-01  2.000E+01  2.000E+04 -1.743E-01
   1    9   27     2     4    5.9365E+04 -6.2142E+03   6.5579E+04  0.000E+00  0.000E+00  0.000E+00  3.95074E+01  1.324E-01  2.000E+01  2.000E+04 -3.107E-01
   1   10   26     2     5    6.5579E+04 -3.8401E+03   6.9419E+04  0.000E+00  0.000E+00  0.000E+00  3.92637E+01  1.387E-01  2.000E+01  2.000E+04 -1.920E-01
   1   11   25     2     6    6.9419E+04 -2.7896E+03   7.2209E+04  0.000E+00  0.000E+00  0.000E+00  3.90178E+01  1.428E-01  2.000E+01  2.000E+04 -1.395E-01
   1   12   24     2     7    7.2209E+04 -1.9313E+03   7.4140E+04  0.000E+00  0.000E+00  0.000E+00  3.87706E+01  1.456E-01  2.000E+01  2.000E+04 -9.657E-02
   1   13   23     2     8    7.4140E+04 -1.0677E+03   7.5208E+04  0.000E+00  0.000E+00  0.000E+00  3.85224E+01  1.474E-01  2.000E+01  2.000E+04 -5.339E-02
   1   14   22     2     9    7.5208E+04  2.3919E+03   7.2816E+04  0.000E+00  0.000E+00  0.000E+00  3.82716E+01  1.466E-01  2.000E+01  2.000E+04  1.196E-01
   1   14   22     3     1    2.3348E+05 -7.8959E+03   2.4137E+05  0.000E+00  0.000E+00  0.000E+00  3.77572E+01  2.017E-01  2.000E+01  2.000E+04 -3.948E-01
   1   15   23     3     2    2.4137E+05  2.5002E+03   2.3887E+05  0.000E+00  0.000E+00  0.000E+00  3.68697E+01  2.030E-01  2.000E+01  2.000E+04  1.250E-01
   1   15   24     3     3    2.3887E+05  1.4112E+03   2.3746E+05  0.000E+00  0.000E+00  0.000E+00  3.59798E+01  2.020E-01  2.000E+01  2.000E+04  7.056E-02
   1   15   25     3     4    2.3746E+05  7.5575E+02   2.3670E+05  0.000E+00  0.000E+00  0.000E+00  3.50904E+01  2.015E-01  2.000E+01  2.000E+04  3.779E-02
   1   15   26     3     5    2.3670E+05 -6.0606E+02   2.3731E+05  0.000E+00  0.000E+00  0.000E+00  3.42014E+01  2.014E-01  2.000E+01  2.000E+04 -3.030E-02
   1   16   27     3     6    2.3731E+05  2.6320E+02   2.3705E+05  0.000E+00  0.000E+00  0.000E+00  3.33126E+01  2.015E-01  2.000E+01  2.000E+04  1.316E-02
   1   17   28     3     7    2.3705E+05 -4.5344E+02   2.3750E+05  0.000E+00  0.000E+00  0.000E+00  3.24238E+01  2.016E-01  2.000E+01  2.000E+04 -2.267E-02
   1   18   29     3     8    2.3750E+05 -2.2926E+03   2.3979E+05  0.000E+00  0.000E+00  0.000E+00  3.15356E+01  2.023E-01  2.000E+01  2.000E+04 -1.146E-01
   1   18   30     3     9    2.3979E+05 -3.4127E+03   2.4321E+05  0.000E+00  0.000E+00  0.000E+00  3.06482E+01  2.037E-01  2.000E+01  2.000E+04 -1.706E-01



1
              HEAD IN LAYER   1 AT END OF TIME STEP   1 IN STRESS PERIOD   12
  ---------------------------------------------------------------------------

          1      2      3      4      5      6      7      8      9     10
         11     12     13     14     15     16     17     18     19     20
         21     22     23     24     25     26     27     28     29     30
 .........................................................................
   1  ****** ****** ****** ****** ****** ****** ****** ****** ****** ******
      ****** ****** ****** ****** ****** ****** ****** ****** ****** ******
      ****** ****** ****** ****** ****** ****** ****** ****** ****** ******
   2  ****** ****** ****** ****** ****** ****** ****** ****** ****** ******
      ****** ****** ****** ****** ****** ****** ****** ****** ****** ******
      ****** ****** ****** ****** ****** ****** ****** ****** ****** ******
   3  ****** ****** ****** ****** ****** ****** ****** ****** ****** ******
      ****** ****** ****** ****** ****** ****** ****** ****** ****** ******
      ****** ****** ****** ****** ****** ****** ****** ****** ****** ******
   4  ****** ****** ****** ****** ****** ****** ****** ****** ****** ******
      ****** ****** ****** ****** ****** ****** ****** ****** ****** ******
      ****** ****** ****** ****** ****** ****** ****** ****** ****** ******
   5  ****** ****** ****** ****** ****** ****** ****** ****** ****** ******
      ****** ****** ****** ****** ****** ****** ****** ****** ****** ******
      ****** ****** ****** ****** ****** ****** ****** ****** ****** ******
   6  ****** ****** ****** ****** ****** ****** ****** ****** ****** ******
      ****** ****** ****** ****** ****** ****** ****** ****** ****** ******
      ****** ****** ****** ****** ****** ****** ****** ****** ****** ******
   7  ****** ****** ****** ****** ****** ****** ****** ****** ****** ******
      ****** ****** ****** ****** ****** ****** ****** ****** ****** ******
      ****** ****** ****** ****** ****** ****** ****** ****** ****** ******
   8  ****** ****** ****** ****** ****** ****** ****** ****** ****** ******
      ****** ****** ****** ****** ****** ****** ****** ****** ****** ******
      ****** ****** ****** ****** ****** ****** ****** ****** ****** ******
   9  ****** ****** ****** ****** ****** ****** ****** ****** ****** ******
      ****** ****** ****** ****** ****** ****** ****** ****** ****** ******
      ****** ****** ****** ****** ****** ****** ****** ****** ****** ******
  10  ****** ****** ****** ****** ****** ****** ****** ****** ****** ******
      ****** ****** ****** ****** ****** ****** ****** ****** ****** ******
      ****** ****** ****** ****** ****** ****** ****** ****** ****** ******
  11  ****** ****** ****** ****** ****** ****** ****** ****** ****** ******
      ****** ****** ****** ****** ****** ****** ****** ****** ****** ******
      ****** ****** ****** ****** ****** ****** ****** ****** ****** ******
  12  ****** ****** ****** ****** ****** ****** ****** ****** ****** ******
      ****** ****** ****** ****** ****** ****** ****** ****** ****** ******
      ****** ****** ****** ****** ****** ****** ****** ****** ****** ******
  13  ****** ****** ****** ****** ****** ****** ****** ****** ****** ******
      ****** ****** ****** ****** ****** ****** ****** ****** ****** ******
      ****** ****** ****** ****** ****** ****** ****** ****** ****** ******
  14  ****** ****** ****** ****** ****** ****** ****** ****** ****** ******
      ****** ****** ****** ****** ****** ****** ****** ****** ****** ******
      ****** ****** ****** ****** ****** ****** ****** ****** ****** ******
  15  ****** ****** ****** ****** ****** ****** ****** ****** ****** ******
      ****** ****** ****** ****** ****** ****** ****** ****** ****** ******
      ****** ****** ****** ****** ****** ****** ****** ****** ****** ******
  16  ****** ****** ****** ****** ****** ****** ****** ****** ****** ******
      ****** ****** ****** ****** ****** ****** ****** ****** ****** ******
      ****** ****** ****** ****** ****** ****** ****** ****** ****** ******
  17  ****** ****** ****** ****** ****** ****** ****** ****** ****** ******
      ****** ****** ****** ****** ****** ****** ****** ****** ****** ******
      ****** ****** ****** ****** ****** ****** ****** ****** ****** ******
  18  ****** ****** ****** ****** ****** ****** ****** ****** ****** ******
      ****** ****** ****** ****** ****** ****** ****** ****** ****** ******
      ****** ****** ****** ****** ****** ****** ****** ****** ****** ******
  19  ****** ****** ****** ****** ****** ****** ****** ****** ****** ******
      ****** ****** ****** ****** ****** ****** ****** ****** ****** ******
      ****** ****** ****** ****** ****** ****** ****** ****** ****** ******
  20  ****** ****** ****** ****** ****** ****** ****** ****** ****** ******
      ****** ****** ****** ****** ****** ****** ****** ****** ****** ******
      ****** ****** ****** ****** ****** ****** ****** ****** ****** ******
  21  ****** ****** ****** ****** ****** ****** ****** ****** ****** ******
      ****** ****** ****** ****** ****** ****** ****** ****** ****** ******
      ****** ****** ****** ****** ****** ****** ****** ****** ****** ******
  22  ****** ****** ****** ****** ****** ****** ****** ****** ****** ******
      ****** ****** ****** ****** ****** ****** ****** ****** ****** ******
      ****** ****** ****** ****** ****** ****** ****** ****** ****** ******
  23  ****** ****** ****** ****** ****** ****** ****** ****** ****** ******
      ****** ****** ****** ****** ****** ****** ****** ****** ****** ******
      ****** ****** ****** ****** ****** ****** ****** ****** ****** ******
  24  ****** ****** ****** ****** ****** ****** ****** ****** ****** ******
      ****** ****** ****** ****** ****** ****** ****** ****** ****** ******
      ****** ****** ****** ****** ****** ****** ****** ****** ****** ******
  25  ****** ****** ****** ****** ****** ****** ****** ****** ****** ******
      ****** ****** ****** ****** ****** ****** ****** ****** ****** ******
      ****** ****** ****** ****** ****** ****** ****** ****** ****** ******

 HEAD WILL BE SAVED ON UNIT   51 AT END OF TIME STEP    1, STRESS PERIOD   12
1
  VOLUMETRIC BUDGET FOR ENTIRE MODEL AT END OF TIME STEP    1, STRESS PERIOD  12
  ------------------------------------------------------------------------------

     CUMULATIVE VOLUMES      L**3       RATES FOR THIS TIME STEP      L**3/T
     ------------------                 ------------------------

           IN:                                      IN:
           ---                                      ---
             STORAGE =    26505707.5487               STORAGE =           0.0000
       CONSTANT HEAD =   152249221.6485         CONSTANT HEAD =      145687.9121
               WELLS =           0.0000                 WELLS =           0.0000
            RECHARGE =    26413200.0000              RECHARGE =       27600.0000
      STREAM LEAKAGE =    14109230.8391        STREAM LEAKAGE =       13994.5423

            TOTAL IN =   219277360.0363              TOTAL IN =      187282.4545

          OUT:                                     OUT:
          ----                                     ----
             STORAGE =     2588749.8093               STORAGE =        3733.6423
       CONSTANT HEAD =           0.0000         CONSTANT HEAD =           0.0000
               WELLS =    83601126.7259                 WELLS =       76348.0609
            RECHARGE =           0.0000              RECHARGE =           0.0000
      STREAM LEAKAGE =   133087484.4269        STREAM LEAKAGE =      107200.7504

           TOTAL OUT =   219277360.9622             TOTAL OUT =      187282.4536

            IN - OUT =          -0.9258              IN - OUT =       8.3534E-04

 PERCENT DISCREPANCY =          -0.00     PERCENT DISCREPANCY =           0.00






         TIME SUMMARY AT END OF TIME STEP    1 IN STRESS PERIOD   12
                    SECONDS     MINUTES      HOURS       DAYS        YEARS
                    -----------------------------------------------------------
   TIME STEP LENGTH 7.86240E+06 1.31040E+05  2184.0      91.000     0.24914    
 STRESS PERIOD TIME 7.86240E+06 1.31040E+05  2184.0      91.000     0.24914    
         TOTAL TIME 9.46080E+07 1.57680E+06  26280.      1095.0      2.9979    
1

 Run end date and time (yyyy/mm/dd hh:mm:ss): 2018/10/10 15:27:25
 Elapsed run time:  0.055 Seconds

