                                  MODFLOW-2005     
      U.S. GEOLOGICAL SURVEY MODULAR FINITE-DIFFERENCE GROUND-WATER FLOW MODEL
                            VERSION 1.11.00 8/8/2013

 LIST FILE: supply2.lst
                         UNIT   10

 OPENING ..\data\supply.dis
 FILE TYPE:DIS   UNIT   11   STATUS:OLD    
 FORMAT:FORMATTED              ACCESS:SEQUENTIAL          

 OPENING ..\data\supply.ba6
 FILE TYPE:BAS6   UNIT   12   STATUS:OLD    
 FORMAT:FORMATTED              ACCESS:SEQUENTIAL          

 OPENING ..\data\supply.bc6
 FILE TYPE:BCF6   UNIT   13   STATUS:OLD    
 FORMAT:FORMATTED              ACCESS:SEQUENTIAL          

 OPENING ..\data\supply.rch
 FILE TYPE:RCH   UNIT   15   STATUS:OLD    
 FORMAT:FORMATTED              ACCESS:SEQUENTIAL          

 OPENING ..\data\supply2.sfr
 FILE TYPE:SFR   UNIT   16   STATUS:OLD    
 FORMAT:FORMATTED              ACCESS:SEQUENTIAL          

 OPENING ..\data\supply.oc
 FILE TYPE:OC   UNIT   17   STATUS:OLD    
 FORMAT:FORMATTED              ACCESS:SEQUENTIAL          

 OPENING ..\data\supply.pcg
 FILE TYPE:PCG   UNIT   18   STATUS:OLD    
 FORMAT:FORMATTED              ACCESS:SEQUENTIAL          

 OPENING supply2.wel
 FILE TYPE:WEL   UNIT   19   STATUS:OLD    
 FORMAT:FORMATTED              ACCESS:SEQUENTIAL          

 OPENING supply2sf.bin
 FILE TYPE:DATA(BINARY)   UNIT   50   STATUS:UNKNOWN
 FORMAT:BINARY                 ACCESS:SEQUENTIAL          

 OPENING supply2hd.bin
 FILE TYPE:DATA(BINARY)   UNIT   51   STATUS:UNKNOWN
 FORMAT:BINARY                 ACCESS:SEQUENTIAL          

 BAS -- BASIC PACKAGE, VERSION 7, 5/2/2005 INPUT READ FROM UNIT   12
 
 MODFLOW was compiled using uniform precision
 Precision of REAL and DOUBLE PRECISION variables:          15

 DISCRETIZATION INPUT DATA READ FROM UNIT   11
    1 LAYERS        25 ROWS        30 COLUMNS
   12 STRESS PERIOD(S) IN SIMULATION
 MODEL TIME UNIT IS DAYS
 MODEL LENGTH UNIT IS UNDEFINED
  Confining bed flag for each layer:
   0

                     DELR =   200.000    

                     DELC =   200.000    

 TOP ELEVATION OF LAYER 1 =  100.0000    

   MODEL LAYER BOTTOM EL. =   0.00000     FOR LAYER   1


 STRESS PERIOD     LENGTH       TIME STEPS     MULTIPLIER FOR DELT    SS FLAG
 ----------------------------------------------------------------------------
        1         92.00000          1                    1.500         TR
        2         91.00000          1                    1.500         TR
        3         91.00000          1                    1.500         TR
        4         91.00000          1                    1.500         TR
        5         92.00000          1                    1.500         TR
        6         91.00000          1                    1.500         TR
        7         91.00000          1                    1.500         TR
        8         91.00000          1                    1.500         TR
        9         92.00000          1                    1.500         TR
       10         91.00000          1                    1.500         TR
       11         91.00000          1                    1.500         TR
       12         91.00000          1                    1.500         TR

 TRANSIENT SIMULATION



 
 #MODOFC transient water supply sample problem                                   
 #                                                                               
 THE FREE FORMAT OPTION HAS BEEN SELECTED



                     BOUNDARY ARRAY FOR LAYER   1
 READING ON UNIT   12 WITH FORMAT: (20I4)              

 AQUIFER HEAD WILL BE SET TO   0.0000     AT ALL NO-FLOW NODES (IBOUND=0).



                       INITIAL HEAD FOR LAYER   1
 READING ON UNIT   12 WITH FORMAT: (10F13.0)           

 OUTPUT CONTROL IS SPECIFIED ONLY AT TIME STEPS FOR WHICH OUTPUT IS DESIRED
 COMPACT CELL-BY-CELL BUDGET FILES WILL BE WRITTEN
 HEAD PRINT FORMAT CODE IS  18    DRAWDOWN PRINT FORMAT CODE IS   0
 HEADS WILL BE SAVED ON UNIT   51    DRAWDOWNS WILL BE SAVED ON UNIT    0

 BCF -- BLOCK-CENTERED FLOW PACKAGE, VERSION 7, 5/2/2005
         INPUT READ FROM UNIT 13
 TRANSIENT SIMULATION
 HEAD AT CELLS THAT CONVERT TO DRY=   0.0000    
 WETTING CAPABILITY IS NOT ACTIVE
      LAYER  LAYER-TYPE CODE     INTERBLOCK T
      --------------------------------------------
         1            0          0 -- HARMONIC    

 COLUMN TO ROW ANISOTROPY =  1.000000    

     PRIMARY STORAGE COEF =  5.000000E-02 FOR LAYER   1

     TRANSMIS. ALONG ROWS =   5000.00     FOR LAYER   1

 WEL -- WELL PACKAGE, VERSION 7, 5/2/2005 INPUT READ FROM UNIT   19
 # Well package input file written by MMProc
 No named parameters
 MAXIMUM OF      5 ACTIVE WELLS AT ONE TIME


     0 Well parameters

 RCH -- RECHARGE PACKAGE, VERSION 7, 5/2/2005 INPUT READ FROM UNIT   15
 No named parameters
 OPTION 1 -- RECHARGE TO TOP LAYER


     0 Recharge parameters

 SFR7 -- STREAMFLOW ROUTING PACKAGE, VERSION 1.0.7, 2013-01-15
         INPUT READ FROM UNIT  16
 #  Supply2 test problem for GWM-VI
 #  The eighth entry in the first data line is ISTCB2 -
 #    Setting this to a negative number indicates that
 #    streamflows out of the reach will be saved to a
 #    binary file.  The absolute value of ISTCB2 is the
 #    unit to which unformatted flows will be written.
 #
 No named parameters
 Segment information will not be 
 read by reach
 No named parameters
 No specifed inflow files


 NUMBER OF STREAM REACHES IS   40

 NUMBER OF STREAM SEGMENTS IS    3

 NUMBER OF STREAM PARAMETERS IS    0

 NUMBER OF STREAM SEGMENTS DEFINED USING PARAMETERS IS              0

 MAXIMUM ERROR FOR STREAM LEAKAGE RATES IS  1.00E-04

 CONSTANT FOR MANNINGS EQUATION IS  1.2839E+05





   STREAM NETWORK DESCRIPTION: 

   LAYER    ROW    COL   SEGMENT   REACH     LENGTH
                          NUMBER   NUMBER    IN CELL        
   --------------------------------------------------
      1     13      1       1        1    2.0000E+02
      1     13      2       1        2    2.0000E+02
      1     14      3       1        3    2.0000E+02
      1     15      4       1        4    2.0000E+02
      1     16      5       1        5    2.0000E+02
      1     16      6       1        6    2.0000E+02
      1     16      7       1        7    2.0000E+02
      1     16      8       1        8    2.0000E+02
      1     16      9       1        9    2.0000E+02
      1     16     10       1       10    2.0000E+02
      1     16     11       1       11    2.0000E+02
      1     16     12       1       12    2.0000E+02
      1     15     13       1       13    2.0000E+02
      1     14     14       1       14    2.0000E+02
      1     13     15       1       15    2.0000E+02
      1     12     16       1       16    2.0000E+02
      1     12     17       1       17    2.0000E+02
      1     12     18       1       18    2.0000E+02
      1     12     19       1       19    2.0000E+02
      1     13     20       1       20    2.0000E+02
      1     14     21       1       21    2.0000E+02
      1     14     22       1       22    2.0000E+02
      1      9     30       2        1    2.0000E+02
      1      9     29       2        2    2.0000E+02
      1      9     28       2        3    2.0000E+02
      1      9     27       2        4    2.0000E+02
      1     10     26       2        5    2.0000E+02
      1     11     25       2        6    2.0000E+02
      1     12     24       2        7    2.0000E+02
      1     13     23       2        8    2.0000E+02
      1     14     22       2        9    2.0000E+02
      1     14     22       3        1    2.0000E+02
      1     15     23       3        2    2.0000E+02
      1     15     24       3        3    2.0000E+02
      1     15     25       3        4    2.0000E+02
      1     15     26       3        5    2.0000E+02
      1     16     27       3        6    2.0000E+02
      1     17     28       3        7    2.0000E+02
      1     18     29       3        8    2.0000E+02
      1     18     30       3        9    2.0000E+02




 PCG -- CONJUGATE-GRADIENT SOLUTION PACKAGE, VERSION 7, 5/2/2005
 MAXIMUM OF    500 CALLS OF SOLUTION ROUTINE
 MAXIMUM OF      5 INTERNAL ITERATIONS PER CALL TO SOLUTION ROUTINE
 MATRIX PRECONDITIONING TYPE :    1



                                    SOLUTION BY THE CONJUGATE-GRADIENT METHOD
                                   -------------------------------------------
                    MAXIMUM NUMBER OF CALLS TO PCG ROUTINE =      500
                        MAXIMUM ITERATIONS PER CALL TO PCG =        5
                               MATRIX PRECONDITIONING TYPE =        1
        RELAXATION FACTOR (ONLY USED WITH PRECOND. TYPE 1) =    0.10000E+01
 PARAMETER OF POLYNOMIAL PRECOND. = 2 (2) OR IS CALCULATED :        0
                         HEAD CHANGE CRITERION FOR CLOSURE =    0.10000E-05
                     RESIDUAL CHANGE CRITERION FOR CLOSURE =    0.10000E+01
            PCG HEAD AND RESIDUAL CHANGE PRINTOUT INTERVAL =        1
     PRINTING FROM SOLVER IS LIMITED(1) OR SUPPRESSED (>1) =        1
                            STEADY-STATE DAMPING PARAMETER =    0.10000E+01
                               TRANSIENT DAMPING PARAMETER =    0.10000E+01
1
                            STRESS PERIOD NO.    1, LENGTH =   92.00000    
                            -----------------------------------------------

                              NUMBER OF TIME STEPS =     1

                               MULTIPLIER FOR DELT =     1.500

                            INITIAL TIME STEP SIZE =   92.00000    

 WELL NO.  LAYER   ROW   COL   STRESS RATE         
 --------------------------------------------------
      1      1      4      5     -0.5000E+05
      2      1      2     11     -0.5000E+05
      3      1      6     11     -0.5250E+05

      3 WELLS

                 RECHARGE =  5.000000E-04



 CLASSIFICATION & COUNT OF STREAM SEGMENTS BASED ON SOURCE OF INFLOW:

                HEADWATER     DIVERSION     RECEIVES TRIBUTARY FLOW
                ---------     ---------     -----------------------
                     2              0               1



                    INPUT DATA FOR EACH STREAM SEGMENT
 ---------------------------------------------------------------------------------------------

 SEGMENT    SEG.     INFLOW   OVERLAND   STREAM    STREAM   ICALC  OUTFLOW  DIVERSION PRIORITY
    NO.    LENGTH     RATE     RUNOFF      ET       PPT.    METH.  TO SEG.  FROM SEG.    NO.

      1  4.400E+03 1.000E+05 0.000E+00 0.000E+00 0.000E+00    1        3        0        0
      2  1.800E+03 5.000E+04 0.000E+00 0.000E+00 0.000E+00    1        3        0        0
      3  1.800E+03 0.000E+00 0.000E+00 0.000E+00 0.000E+00    1        0        0        0


         STREAMBED PROPERTIES AND STREAM DIMENSIONS

 SEGMENT     BED HYD. COND.      BED THICKNESS     ELEV.-TOP OF BED     WIDTH OF STREAM     DEPTH OF STREAM    STREAM ROUGHNESS
    No.     UPPER     LOWER     UPPER     LOWER     UPPER     LOWER     UPPER     LOWER     UPPER     LOWER   CHANNEL      BANK

     1  5.000E+00 5.000E+00 1.000E+00 1.000E+00 4.850E+01 3.800E+01 2.000E+01 2.000E+01                     5.000E-02
     2  5.000E+00 5.000E+00 1.000E+00 1.000E+00 4.025E+01 3.800E+01 2.000E+01 2.000E+01                     5.000E-02
     3  5.000E+00 5.000E+00 1.000E+00 1.000E+00 3.800E+01 3.000E+01 2.000E+01 2.000E+01                     5.000E-02



 
 SOLVING FOR HEAD 


     8 CALLS TO PCG ROUTINE FOR TIME STEP   1 IN STRESS PERIOD    1
    32 TOTAL ITERATIONS

 OUTPUT CONTROL FOR STRESS PERIOD    1   TIME STEP    1
    SAVE BUDGET
    SAVE HEAD FOR ALL LAYERS
    PRINT HEAD FOR ALL LAYERS
 UBDSV2 SAVING "STREAMFLOW OUT  " ON UNIT  50 AT TIME STEP  1, STRESS PERIOD   1



 STREAM LISTING     PERIOD      1   STEP        1

 LAYER ROW COL. STREAM  RCH.  FLOW INTO     FLOW TO   FLOW OUT OF   OVRLND.     DIRECT     STREAM       STREAM     STREAM     STREAM   STREAMBED  STREAMBED
                SEG.NO.  NO.  STRM. RCH.    AQUIFER    STRM. RCH.    RUNOFF     PRECIP       ET          HEAD       DEPTH      WIDTH   CONDCTNC.   GRADIENT

   1   13    1     1     1    1.0000E+05 -2.9469E+04   1.2947E+05  0.000E+00  0.000E+00  0.000E+00  4.84185E+01  1.571E-01  2.000E+01  2.000E+04 -1.473E+00
   1   13    2     1     2    1.2947E+05 -3.9252E+04   1.6872E+05  0.000E+00  0.000E+00  0.000E+00  4.79679E+01  1.838E-01  2.000E+01  2.000E+04 -1.963E+00
   1   14    3     1     3    1.6872E+05 -3.5612E+04   2.0433E+05  0.000E+00  0.000E+00  0.000E+00  4.75171E+01  2.103E-01  2.000E+01  2.000E+04 -1.781E+00
   1   15    4     1     4    2.0433E+05 -3.5238E+04   2.3957E+05  0.000E+00  0.000E+00  0.000E+00  4.70629E+01  2.334E-01  2.000E+01  2.000E+04 -1.762E+00
   1   16    5     1     5    2.3957E+05 -3.6840E+04   2.7641E+05  0.000E+00  0.000E+00  0.000E+00  4.66077E+01  2.554E-01  2.000E+01  2.000E+04 -1.842E+00
   1   16    6     1     6    2.7641E+05 -3.2002E+04   3.0841E+05  0.000E+00  0.000E+00  0.000E+00  4.61504E+01  2.754E-01  2.000E+01  2.000E+04 -1.600E+00
   1   16    7     1     7    3.0841E+05 -3.1720E+04   3.4013E+05  0.000E+00  0.000E+00  0.000E+00  4.56907E+01  2.930E-01  2.000E+01  2.000E+04 -1.586E+00
   1   16    8     1     8    3.4013E+05 -3.1887E+04   3.7202E+05  0.000E+00  0.000E+00  0.000E+00  4.52304E+01  3.099E-01  2.000E+01  2.000E+04 -1.594E+00
   1   16    9     1     9    3.7202E+05 -3.1990E+04   4.0401E+05  0.000E+00  0.000E+00  0.000E+00  4.47695E+01  3.263E-01  2.000E+01  2.000E+04 -1.600E+00
   1   16   10     1    10    4.0401E+05 -3.2087E+04   4.3610E+05  0.000E+00  0.000E+00  0.000E+00  4.43081E+01  3.422E-01  2.000E+01  2.000E+04 -1.604E+00
   1   16   11     1    11    4.3610E+05 -3.2873E+04   4.6897E+05  0.000E+00  0.000E+00  0.000E+00  4.38465E+01  3.579E-01  2.000E+01  2.000E+04 -1.644E+00
   1   16   12     1    12    4.6897E+05 -3.9122E+04   5.0809E+05  0.000E+00  0.000E+00  0.000E+00  4.33860E+01  3.747E-01  2.000E+01  2.000E+04 -1.956E+00
   1   15   13     1    13    5.0809E+05 -3.7873E+04   5.4597E+05  0.000E+00  0.000E+00  0.000E+00  4.29262E+01  3.921E-01  2.000E+01  2.000E+04 -1.894E+00
   1   14   14     1    14    5.4597E+05 -3.8263E+04   5.8423E+05  0.000E+00  0.000E+00  0.000E+00  4.24657E+01  4.089E-01  2.000E+01  2.000E+04 -1.913E+00
   1   13   15     1    15    5.8423E+05 -4.0113E+04   6.2434E+05  0.000E+00  0.000E+00  0.000E+00  4.20052E+01  4.257E-01  2.000E+01  2.000E+04 -2.006E+00
   1   12   16     1    16    6.2434E+05 -4.5532E+04   6.6987E+05  0.000E+00  0.000E+00  0.000E+00  4.15458E+01  4.435E-01  2.000E+01  2.000E+04 -2.277E+00
   1   12   17     1    17    6.6987E+05 -3.6355E+04   7.0623E+05  0.000E+00  0.000E+00  0.000E+00  4.10851E+01  4.601E-01  2.000E+01  2.000E+04 -1.818E+00
   1   12   18     1    18    7.0623E+05 -3.5026E+04   7.4125E+05  0.000E+00  0.000E+00  0.000E+00  4.06221E+01  4.743E-01  2.000E+01  2.000E+04 -1.751E+00
   1   12   19     1    19    7.4125E+05 -3.9615E+04   7.8087E+05  0.000E+00  0.000E+00  0.000E+00  4.01593E+01  4.889E-01  2.000E+01  2.000E+04 -1.981E+00
   1   13   20     1    20    7.8087E+05 -3.0311E+04   8.1118E+05  0.000E+00  0.000E+00  0.000E+00  3.96954E+01  5.022E-01  2.000E+01  2.000E+04 -1.516E+00
   1   14   21     1    21    8.1118E+05 -2.2906E+04   8.3409E+05  0.000E+00  0.000E+00  0.000E+00  3.92281E+01  5.122E-01  2.000E+01  2.000E+04 -1.145E+00
   1   14   22     1    22    8.3409E+05 -3.0040E+03   8.3709E+05  0.000E+00  0.000E+00  0.000E+00  3.87557E+01  5.170E-01  2.000E+01  2.000E+04 -1.502E-01
   1    9   30     2     1    5.0000E+04 -2.9619E+04   7.9619E+04  0.000E+00  0.000E+00  0.000E+00  4.02604E+01  1.354E-01  2.000E+01  2.000E+04 -1.481E+00
   1    9   29     2     2    7.9619E+04 -3.2049E+04   1.1167E+05  0.000E+00  0.000E+00  0.000E+00  4.00460E+01  1.710E-01  2.000E+01  2.000E+04 -1.602E+00
   1    9   28     2     3    1.1167E+05 -3.6343E+04   1.4801E+05  0.000E+00  0.000E+00  0.000E+00  3.98304E+01  2.054E-01  2.000E+01  2.000E+04 -1.817E+00
   1    9   27     2     4    1.4801E+05 -5.0888E+04   1.9890E+05  0.000E+00  0.000E+00  0.000E+00  3.96194E+01  2.444E-01  2.000E+01  2.000E+04 -2.544E+00
   1   10   26     2     5    1.9890E+05 -3.7268E+04   2.3617E+05  0.000E+00  0.000E+00  0.000E+00  3.94050E+01  2.800E-01  2.000E+01  2.000E+04 -1.863E+00
   1   11   25     2     6    2.3617E+05 -2.8856E+04   2.6502E+05  0.000E+00  0.000E+00  0.000E+00  3.91798E+01  3.048E-01  2.000E+01  2.000E+04 -1.443E+00
   1   12   24     2     7    2.6502E+05 -2.1906E+04   2.8693E+05  0.000E+00  0.000E+00  0.000E+00  3.89479E+01  3.229E-01  2.000E+01  2.000E+04 -1.095E+00
   1   13   23     2     8    2.8693E+05 -1.5917E+04   3.0285E+05  0.000E+00  0.000E+00  0.000E+00  3.87110E+01  3.360E-01  2.000E+01  2.000E+04 -7.958E-01
   1   14   22     2     9    3.0285E+05 -8.7299E+03   3.1158E+05  0.000E+00  0.000E+00  0.000E+00  3.84694E+01  3.444E-01  2.000E+01  2.000E+04 -4.365E-01
   1   14   22     3     1    1.1487E+06 -1.6575E+04   1.1652E+06  0.000E+00  0.000E+00  0.000E+00  3.80771E+01  5.215E-01  2.000E+01  2.000E+04 -8.288E-01
   1   15   23     3     2    1.1652E+06 -2.6728E+04   1.1920E+06  0.000E+00  0.000E+00  0.000E+00  3.71940E+01  5.274E-01  2.000E+01  2.000E+04 -1.336E+00
   1   15   24     3     3    1.1920E+06 -2.2377E+04   1.2143E+06  0.000E+00  0.000E+00  0.000E+00  3.63117E+01  5.339E-01  2.000E+01  2.000E+04 -1.119E+00
   1   15   25     3     4    1.2143E+06 -2.2105E+04   1.2365E+06  0.000E+00  0.000E+00  0.000E+00  3.54287E+01  5.398E-01  2.000E+01  2.000E+04 -1.105E+00
   1   15   26     3     5    1.2365E+06 -2.5534E+04   1.2620E+06  0.000E+00  0.000E+00  0.000E+00  3.45461E+01  5.461E-01  2.000E+01  2.000E+04 -1.277E+00
   1   16   27     3     6    1.2620E+06 -3.3262E+04   1.2952E+06  0.000E+00  0.000E+00  0.000E+00  3.36649E+01  5.538E-01  2.000E+01  2.000E+04 -1.663E+00
   1   17   28     3     7    1.2952E+06 -4.0272E+04   1.3355E+06  0.000E+00  0.000E+00  0.000E+00  3.27855E+01  5.633E-01  2.000E+01  2.000E+04 -2.014E+00
   1   18   29     3     8    1.3355E+06 -5.0724E+04   1.3862E+06  0.000E+00  0.000E+00  0.000E+00  3.19082E+01  5.749E-01  2.000E+01  2.000E+04 -2.536E+00
   1   18   30     3     9    1.3862E+06 -4.6720E+04   1.4330E+06  0.000E+00  0.000E+00  0.000E+00  3.10316E+01  5.872E-01  2.000E+01  2.000E+04 -2.336E+00



1
              HEAD IN LAYER   1 AT END OF TIME STEP   1 IN STRESS PERIOD    1
  ---------------------------------------------------------------------------

          1      2      3      4      5      6      7      8      9     10
         11     12     13     14     15     16     17     18     19     20
         21     22     23     24     25     26     27     28     29     30
 .........................................................................
   1  ****** ****** ****** ****** ****** ****** ****** ****** ****** ******
      ****** ****** ****** ****** ****** ****** ****** ****** ****** ******
      ****** ****** ****** ****** ****** ****** ****** ****** ****** ******
   2  ****** ****** ****** ****** ****** ****** ****** ****** ****** ******
      ****** ****** ****** ****** ****** ****** ****** ****** ****** ******
      ****** ****** ****** ****** ****** ****** ****** ****** ****** ******
   3  ****** ****** ****** ****** ****** ****** ****** ****** ****** ******
      ****** ****** ****** ****** ****** ****** ****** ****** ****** ******
      ****** ****** ****** ****** ****** ****** ****** ****** ****** ******
   4  ****** ****** ****** ****** ****** ****** ****** ****** ****** ******
      ****** ****** ****** ****** ****** ****** ****** ****** ****** ******
      ****** ****** ****** ****** ****** ****** ****** ****** ****** ******
   5  ****** ****** ****** ****** ****** ****** ****** ****** ****** ******
      ****** ****** ****** ****** ****** ****** ****** ****** ****** ******
      ****** ****** ****** ****** ****** ****** ****** ****** ****** ******
   6  ****** ****** ****** ****** ****** ****** ****** ****** ****** ******
      ****** ****** ****** ****** ****** ****** ****** ****** ****** ******
      ****** ****** ****** ****** ****** ****** ****** ****** ****** ******
   7  ****** ****** ****** ****** ****** ****** ****** ****** ****** ******
      ****** ****** ****** ****** ****** ****** ****** ****** ****** ******
      ****** ****** ****** ****** ****** ****** ****** ****** ****** ******
   8  ****** ****** ****** ****** ****** ****** ****** ****** ****** ******
      ****** ****** ****** ****** ****** ****** ****** ****** ****** ******
      ****** ****** ****** ****** ****** ****** ****** ****** ****** ******
   9  ****** ****** ****** ****** ****** ****** ****** ****** ****** ******
      ****** ****** ****** ****** ****** ****** ****** ****** ****** ******
      ****** ****** ****** ****** ****** ****** ****** ****** ****** ******
  10  ****** ****** ****** ****** ****** ****** ****** ****** ****** ******
      ****** ****** ****** ****** ****** ****** ****** ****** ****** ******
      ****** ****** ****** ****** ****** ****** ****** ****** ****** ******
  11  ****** ****** ****** ****** ****** ****** ****** ****** ****** ******
      ****** ****** ****** ****** ****** ****** ****** ****** ****** ******
      ****** ****** ****** ****** ****** ****** ****** ****** ****** ******
  12  ****** ****** ****** ****** ****** ****** ****** ****** ****** ******
      ****** ****** ****** ****** ****** ****** ****** ****** ****** ******
      ****** ****** ****** ****** ****** ****** ****** ****** ****** ******
  13  ****** ****** ****** ****** ****** ****** ****** ****** ****** ******
      ****** ****** ****** ****** ****** ****** ****** ****** ****** ******
      ****** ****** ****** ****** ****** ****** ****** ****** ****** ******
  14  ****** ****** ****** ****** ****** ****** ****** ****** ****** ******
      ****** ****** ****** ****** ****** ****** ****** ****** ****** ******
      ****** ****** ****** ****** ****** ****** ****** ****** ****** ******
  15  ****** ****** ****** ****** ****** ****** ****** ****** ****** ******
      ****** ****** ****** ****** ****** ****** ****** ****** ****** ******
      ****** ****** ****** ****** ****** ****** ****** ****** ****** ******
  16  ****** ****** ****** ****** ****** ****** ****** ****** ****** ******
      ****** ****** ****** ****** ****** ****** ****** ****** ****** ******
      ****** ****** ****** ****** ****** ****** ****** ****** ****** ******
  17  ****** ****** ****** ****** ****** ****** ****** ****** ****** ******
      ****** ****** ****** ****** ****** ****** ****** ****** ****** ******
      ****** ****** ****** ****** ****** ****** ****** ****** ****** ******
  18  ****** ****** ****** ****** ****** ****** ****** ****** ****** ******
      ****** ****** ****** ****** ****** ****** ****** ****** ****** ******
      ****** ****** ****** ****** ****** ****** ****** ****** ****** ******
  19  ****** ****** ****** ****** ****** ****** ****** ****** ****** ******
      ****** ****** ****** ****** ****** ****** ****** ****** ****** ******
      ****** ****** ****** ****** ****** ****** ****** ****** ****** ******
  20  ****** ****** ****** ****** ****** ****** ****** ****** ****** ******
      ****** ****** ****** ****** ****** ****** ****** ****** ****** ******
      ****** ****** ****** ****** ****** ****** ****** ****** ****** ******
  21  ****** ****** ****** ****** ****** ****** ****** ****** ****** ******
      ****** ****** ****** ****** ****** ****** ****** ****** ****** ******
      ****** ****** ****** ****** ****** ****** ****** ****** ****** ******
  22  ****** ****** ****** ****** ****** ****** ****** ****** ****** ******
      ****** ****** ****** ****** ****** ****** ****** ****** ****** ******
      ****** ****** ****** ****** ****** ****** ****** ****** ****** ******
  23  ****** ****** ****** ****** ****** ****** ****** ****** ****** ******
      ****** ****** ****** ****** ****** ****** ****** ****** ****** ******
      ****** ****** ****** ****** ****** ****** ****** ****** ****** ******
  24  ****** ****** ****** ****** ****** ****** ****** ****** ****** ******
      ****** ****** ****** ****** ****** ****** ****** ****** ****** ******
      ****** ****** ****** ****** ****** ****** ****** ****** ****** ******
  25  ****** ****** ****** ****** ****** ****** ****** ****** ****** ******
      ****** ****** ****** ****** ****** ****** ****** ****** ****** ******
      ****** ****** ****** ****** ****** ****** ****** ****** ****** ******

 HEAD WILL BE SAVED ON UNIT   51 AT END OF TIME STEP    1, STRESS PERIOD    1
1
  VOLUMETRIC BUDGET FOR ENTIRE MODEL AT END OF TIME STEP    1, STRESS PERIOD   1
  ------------------------------------------------------------------------------

     CUMULATIVE VOLUMES      L**3       RATES FOR THIS TIME STEP      L**3/T
     ------------------                 ------------------------

           IN:                                      IN:
           ---                                      ---
             STORAGE =    19675658.4932               STORAGE =      213865.8532
       CONSTANT HEAD =   111117466.9873         CONSTANT HEAD =     1207798.5542
               WELLS =           0.0000                 WELLS =           0.0000
            RECHARGE =     1269600.0000              RECHARGE =       13800.0000
      STREAM LEAKAGE =           0.0000        STREAM LEAKAGE =           0.0000

            TOTAL IN =   132062725.4805              TOTAL IN =     1435464.4074

          OUT:                                     OUT:
          ----                                     ----
             STORAGE =           0.0000               STORAGE =           0.0000
       CONSTANT HEAD =           0.0000         CONSTANT HEAD =           0.0000
               WELLS =    14030069.0000                 WELLS =      152500.7500
            RECHARGE =           0.0000              RECHARGE =           0.0000
      STREAM LEAKAGE =   118032658.4408        STREAM LEAKAGE =     1282963.6787

           TOTAL OUT =   132062727.4408             TOTAL OUT =     1435464.4287

            IN - OUT =          -1.9603              IN - OUT =      -2.1308E-02

 PERCENT DISCREPANCY =          -0.00     PERCENT DISCREPANCY =          -0.00






         TIME SUMMARY AT END OF TIME STEP    1 IN STRESS PERIOD    1
                    SECONDS     MINUTES      HOURS       DAYS        YEARS
                    -----------------------------------------------------------
   TIME STEP LENGTH 7.94880E+06 1.32480E+05  2208.0      92.000     0.25188    
 STRESS PERIOD TIME 7.94880E+06 1.32480E+05  2208.0      92.000     0.25188    
         TOTAL TIME 7.94880E+06 1.32480E+05  2208.0      92.000     0.25188    
1
1
                            STRESS PERIOD NO.    2, LENGTH =   91.00000    
                            -----------------------------------------------

                              NUMBER OF TIME STEPS =     1

                               MULTIPLIER FOR DELT =     1.500

                            INITIAL TIME STEP SIZE =   91.00000    

 WELL NO.  LAYER   ROW   COL   STRESS RATE         
 --------------------------------------------------
      1      1      4      5     -0.5000E+05
      2      1      2     11     -0.5000E+05
      3      1      6     11     -0.5250E+05

      3 WELLS

                 RECHARGE =  2.000000E-03

 REUSING STREAM SEGMENT DATA FROM LAST STRESS PERIOD
 
 SOLVING FOR HEAD 


     6 CALLS TO PCG ROUTINE FOR TIME STEP   1 IN STRESS PERIOD    2
    25 TOTAL ITERATIONS

 OUTPUT CONTROL FOR STRESS PERIOD    2   TIME STEP    1
    SAVE BUDGET
    SAVE HEAD FOR ALL LAYERS
    PRINT HEAD FOR ALL LAYERS
 UBDSV2 SAVING "STREAMFLOW OUT  " ON UNIT  50 AT TIME STEP  1, STRESS PERIOD   2



 STREAM LISTING     PERIOD      2   STEP        1

 LAYER ROW COL. STREAM  RCH.  FLOW INTO     FLOW TO   FLOW OUT OF   OVRLND.     DIRECT     STREAM       STREAM     STREAM     STREAM   STREAMBED  STREAMBED
                SEG.NO.  NO.  STRM. RCH.    AQUIFER    STRM. RCH.    RUNOFF     PRECIP       ET          HEAD       DEPTH      WIDTH   CONDCTNC.   GRADIENT

   1   13    1     1     1    1.0000E+05 -2.6071E+04   1.2607E+05  0.000E+00  0.000E+00  0.000E+00  4.84171E+01  1.557E-01  2.000E+01  2.000E+04 -1.304E+00
   1   13    2     1     2    1.2607E+05 -3.5204E+04   1.6127E+05  0.000E+00  0.000E+00  0.000E+00  4.79639E+01  1.798E-01  2.000E+01  2.000E+04 -1.760E+00
   1   14    3     1     3    1.6127E+05 -3.1554E+04   1.9283E+05  0.000E+00  0.000E+00  0.000E+00  4.75106E+01  2.038E-01  2.000E+01  2.000E+04 -1.578E+00
   1   15    4     1     4    1.9283E+05 -3.1383E+04   2.2421E+05  0.000E+00  0.000E+00  0.000E+00  4.70544E+01  2.248E-01  2.000E+01  2.000E+04 -1.569E+00
   1   16    5     1     5    2.2421E+05 -3.3555E+04   2.5777E+05  0.000E+00  0.000E+00  0.000E+00  4.65975E+01  2.452E-01  2.000E+01  2.000E+04 -1.678E+00
   1   16    6     1     6    2.5777E+05 -2.9081E+04   2.8685E+05  0.000E+00  0.000E+00  0.000E+00  4.61389E+01  2.639E-01  2.000E+01  2.000E+04 -1.454E+00
   1   16    7     1     7    2.8685E+05 -2.8798E+04   3.1564E+05  0.000E+00  0.000E+00  0.000E+00  4.56781E+01  2.803E-01  2.000E+01  2.000E+04 -1.440E+00
   1   16    8     1     8    3.1564E+05 -2.8939E+04   3.4458E+05  0.000E+00  0.000E+00  0.000E+00  4.52166E+01  2.962E-01  2.000E+01  2.000E+04 -1.447E+00
   1   16    9     1     9    3.4458E+05 -2.9035E+04   3.7362E+05  0.000E+00  0.000E+00  0.000E+00  4.47547E+01  3.115E-01  2.000E+01  2.000E+04 -1.452E+00
   1   16   10     1    10    3.7362E+05 -2.9139E+04   4.0276E+05  0.000E+00  0.000E+00  0.000E+00  4.42923E+01  3.264E-01  2.000E+01  2.000E+04 -1.457E+00
   1   16   11     1    11    4.0276E+05 -2.9900E+04   4.3266E+05  0.000E+00  0.000E+00  0.000E+00  4.38297E+01  3.411E-01  2.000E+01  2.000E+04 -1.495E+00
   1   16   12     1    12    4.3266E+05 -3.5723E+04   4.6838E+05  0.000E+00  0.000E+00  0.000E+00  4.33683E+01  3.569E-01  2.000E+01  2.000E+04 -1.786E+00
   1   15   13     1    13    4.6838E+05 -3.3866E+04   5.0225E+05  0.000E+00  0.000E+00  0.000E+00  4.29073E+01  3.732E-01  2.000E+01  2.000E+04 -1.693E+00
   1   14   14     1    14    5.0225E+05 -3.4022E+04   5.3627E+05  0.000E+00  0.000E+00  0.000E+00  4.24455E+01  3.886E-01  2.000E+01  2.000E+04 -1.701E+00
   1   13   15     1    15    5.3627E+05 -3.5883E+04   5.7215E+05  0.000E+00  0.000E+00  0.000E+00  4.19837E+01  4.041E-01  2.000E+01  2.000E+04 -1.794E+00
   1   12   16     1    16    5.7215E+05 -4.1564E+04   6.1372E+05  0.000E+00  0.000E+00  0.000E+00  4.15231E+01  4.209E-01  2.000E+01  2.000E+04 -2.078E+00
   1   12   17     1    17    6.1372E+05 -3.3111E+04   6.4683E+05  0.000E+00  0.000E+00  0.000E+00  4.10616E+01  4.366E-01  2.000E+01  2.000E+04 -1.656E+00
   1   12   18     1    18    6.4683E+05 -3.1912E+04   6.7874E+05  0.000E+00  0.000E+00  0.000E+00  4.05977E+01  4.499E-01  2.000E+01  2.000E+04 -1.596E+00
   1   12   19     1    19    6.7874E+05 -3.6211E+04   7.1495E+05  0.000E+00  0.000E+00  0.000E+00  4.01341E+01  4.637E-01  2.000E+01  2.000E+04 -1.811E+00
   1   13   20     1    20    7.1495E+05 -2.7012E+04   7.4196E+05  0.000E+00  0.000E+00  0.000E+00  3.96694E+01  4.762E-01  2.000E+01  2.000E+04 -1.351E+00
   1   14   21     1    21    7.4196E+05 -2.0134E+04   7.6210E+05  0.000E+00  0.000E+00  0.000E+00  3.92013E+01  4.854E-01  2.000E+01  2.000E+04 -1.007E+00
   1   14   22     1    22    7.6210E+05 -1.9623E+03   7.6406E+05  0.000E+00  0.000E+00  0.000E+00  3.87283E+01  4.896E-01  2.000E+01  2.000E+04 -9.812E-02
   1    9   30     2     1    5.0000E+04 -2.6956E+04   7.6956E+04  0.000E+00  0.000E+00  0.000E+00  4.02587E+01  1.337E-01  2.000E+01  2.000E+04 -1.348E+00
   1    9   29     2     2    7.6956E+04 -2.9412E+04   1.0637E+05  0.000E+00  0.000E+00  0.000E+00  4.00417E+01  1.667E-01  2.000E+01  2.000E+04 -1.471E+00
   1    9   28     2     3    1.0637E+05 -3.3686E+04   1.4005E+05  0.000E+00  0.000E+00  0.000E+00  3.98241E+01  1.991E-01  2.000E+01  2.000E+04 -1.684E+00
   1    9   27     2     4    1.4005E+05 -4.7825E+04   1.8788E+05  0.000E+00  0.000E+00  0.000E+00  3.96113E+01  2.363E-01  2.000E+01  2.000E+04 -2.391E+00
   1   10   26     2     5    1.8788E+05 -3.3791E+04   2.2167E+05  0.000E+00  0.000E+00  0.000E+00  3.93950E+01  2.700E-01  2.000E+01  2.000E+04 -1.690E+00
   1   11   25     2     6    2.2167E+05 -2.5399E+04   2.4707E+05  0.000E+00  0.000E+00  0.000E+00  3.91678E+01  2.928E-01  2.000E+01  2.000E+04 -1.270E+00
   1   12   24     2     7    2.4707E+05 -1.8771E+04   2.6584E+05  0.000E+00  0.000E+00  0.000E+00  3.89340E+01  3.090E-01  2.000E+01  2.000E+04 -9.386E-01
   1   13   23     2     8    2.6584E+05 -1.3370E+04   2.7921E+05  0.000E+00  0.000E+00  0.000E+00  3.86955E+01  3.205E-01  2.000E+01  2.000E+04 -6.685E-01
   1   14   22     2     9    2.7921E+05 -7.4718E+03   2.8668E+05  0.000E+00  0.000E+00  0.000E+00  3.84528E+01  3.278E-01  2.000E+01  2.000E+04 -3.736E-01
   1   14   22     3     1    1.0507E+06 -1.5528E+04   1.0663E+06  0.000E+00  0.000E+00  0.000E+00  3.80500E+01  4.944E-01  2.000E+01  2.000E+04 -7.764E-01
   1   15   23     3     2    1.0663E+06 -2.4193E+04   1.0905E+06  0.000E+00  0.000E+00  0.000E+00  3.71667E+01  5.000E-01  2.000E+01  2.000E+04 -1.210E+00
   1   15   24     3     3    1.0905E+06 -2.0137E+04   1.1106E+06  0.000E+00  0.000E+00  0.000E+00  3.62839E+01  5.061E-01  2.000E+01  2.000E+04 -1.007E+00
   1   15   25     3     4    1.1106E+06 -1.9729E+04   1.1303E+06  0.000E+00  0.000E+00  0.000E+00  3.54005E+01  5.116E-01  2.000E+01  2.000E+04 -9.865E-01
   1   15   26     3     5    1.1303E+06 -2.2551E+04   1.1529E+06  0.000E+00  0.000E+00  0.000E+00  3.45174E+01  5.174E-01  2.000E+01  2.000E+04 -1.128E+00
   1   16   27     3     6    1.1529E+06 -2.9834E+04   1.1827E+06  0.000E+00  0.000E+00  0.000E+00  3.36356E+01  5.245E-01  2.000E+01  2.000E+04 -1.492E+00
   1   17   28     3     7    1.1827E+06 -3.6910E+04   1.2196E+06  0.000E+00  0.000E+00  0.000E+00  3.27556E+01  5.334E-01  2.000E+01  2.000E+04 -1.846E+00
   1   18   29     3     8    1.2196E+06 -4.7867E+04   1.2675E+06  0.000E+00  0.000E+00  0.000E+00  3.18780E+01  5.446E-01  2.000E+01  2.000E+04 -2.393E+00
   1   18   30     3     9    1.2675E+06 -4.4193E+04   1.3117E+06  0.000E+00  0.000E+00  0.000E+00  3.10011E+01  5.566E-01  2.000E+01  2.000E+04 -2.210E+00



1
              HEAD IN LAYER   1 AT END OF TIME STEP   1 IN STRESS PERIOD    2
  ---------------------------------------------------------------------------

          1      2      3      4      5      6      7      8      9     10
         11     12     13     14     15     16     17     18     19     20
         21     22     23     24     25     26     27     28     29     30
 .........................................................................
   1  ****** ****** ****** ****** ****** ****** ****** ****** ****** ******
      ****** ****** ****** ****** ****** ****** ****** ****** ****** ******
      ****** ****** ****** ****** ****** ****** ****** ****** ****** ******
   2  ****** ****** ****** ****** ****** ****** ****** ****** ****** ******
      ****** ****** ****** ****** ****** ****** ****** ****** ****** ******
      ****** ****** ****** ****** ****** ****** ****** ****** ****** ******
   3  ****** ****** ****** ****** ****** ****** ****** ****** ****** ******
      ****** ****** ****** ****** ****** ****** ****** ****** ****** ******
      ****** ****** ****** ****** ****** ****** ****** ****** ****** ******
   4  ****** ****** ****** ****** ****** ****** ****** ****** ****** ******
      ****** ****** ****** ****** ****** ****** ****** ****** ****** ******
      ****** ****** ****** ****** ****** ****** ****** ****** ****** ******
   5  ****** ****** ****** ****** ****** ****** ****** ****** ****** ******
      ****** ****** ****** ****** ****** ****** ****** ****** ****** ******
      ****** ****** ****** ****** ****** ****** ****** ****** ****** ******
   6  ****** ****** ****** ****** ****** ****** ****** ****** ****** ******
      ****** ****** ****** ****** ****** ****** ****** ****** ****** ******
      ****** ****** ****** ****** ****** ****** ****** ****** ****** ******
   7  ****** ****** ****** ****** ****** ****** ****** ****** ****** ******
      ****** ****** ****** ****** ****** ****** ****** ****** ****** ******
      ****** ****** ****** ****** ****** ****** ****** ****** ****** ******
   8  ****** ****** ****** ****** ****** ****** ****** ****** ****** ******
      ****** ****** ****** ****** ****** ****** ****** ****** ****** ******
      ****** ****** ****** ****** ****** ****** ****** ****** ****** ******
   9  ****** ****** ****** ****** ****** ****** ****** ****** ****** ******
      ****** ****** ****** ****** ****** ****** ****** ****** ****** ******
      ****** ****** ****** ****** ****** ****** ****** ****** ****** ******
  10  ****** ****** ****** ****** ****** ****** ****** ****** ****** ******
      ****** ****** ****** ****** ****** ****** ****** ****** ****** ******
      ****** ****** ****** ****** ****** ****** ****** ****** ****** ******
  11  ****** ****** ****** ****** ****** ****** ****** ****** ****** ******
      ****** ****** ****** ****** ****** ****** ****** ****** ****** ******
      ****** ****** ****** ****** ****** ****** ****** ****** ****** ******
  12  ****** ****** ****** ****** ****** ****** ****** ****** ****** ******
      ****** ****** ****** ****** ****** ****** ****** ****** ****** ******
      ****** ****** ****** ****** ****** ****** ****** ****** ****** ******
  13  ****** ****** ****** ****** ****** ****** ****** ****** ****** ******
      ****** ****** ****** ****** ****** ****** ****** ****** ****** ******
      ****** ****** ****** ****** ****** ****** ****** ****** ****** ******
  14  ****** ****** ****** ****** ****** ****** ****** ****** ****** ******
      ****** ****** ****** ****** ****** ****** ****** ****** ****** ******
      ****** ****** ****** ****** ****** ****** ****** ****** ****** ******
  15  ****** ****** ****** ****** ****** ****** ****** ****** ****** ******
      ****** ****** ****** ****** ****** ****** ****** ****** ****** ******
      ****** ****** ****** ****** ****** ****** ****** ****** ****** ******
  16  ****** ****** ****** ****** ****** ****** ****** ****** ****** ******
      ****** ****** ****** ****** ****** ****** ****** ****** ****** ******
      ****** ****** ****** ****** ****** ****** ****** ****** ****** ******
  17  ****** ****** ****** ****** ****** ****** ****** ****** ****** ******
      ****** ****** ****** ****** ****** ****** ****** ****** ****** ******
      ****** ****** ****** ****** ****** ****** ****** ****** ****** ******
  18  ****** ****** ****** ****** ****** ****** ****** ****** ****** ******
      ****** ****** ****** ****** ****** ****** ****** ****** ****** ******
      ****** ****** ****** ****** ****** ****** ****** ****** ****** ******
  19  ****** ****** ****** ****** ****** ****** ****** ****** ****** ******
      ****** ****** ****** ****** ****** ****** ****** ****** ****** ******
      ****** ****** ****** ****** ****** ****** ****** ****** ****** ******
  20  ****** ****** ****** ****** ****** ****** ****** ****** ****** ******
      ****** ****** ****** ****** ****** ****** ****** ****** ****** ******
      ****** ****** ****** ****** ****** ****** ****** ****** ****** ******
  21  ****** ****** ****** ****** ****** ****** ****** ****** ****** ******
      ****** ****** ****** ****** ****** ****** ****** ****** ****** ******
      ****** ****** ****** ****** ****** ****** ****** ****** ****** ******
  22  ****** ****** ****** ****** ****** ****** ****** ****** ****** ******
      ****** ****** ****** ****** ****** ****** ****** ****** ****** ******
      ****** ****** ****** ****** ****** ****** ****** ****** ****** ******
  23  ****** ****** ****** ****** ****** ****** ****** ****** ****** ******
      ****** ****** ****** ****** ****** ****** ****** ****** ****** ******
      ****** ****** ****** ****** ****** ****** ****** ****** ****** ******
  24  ****** ****** ****** ****** ****** ****** ****** ****** ****** ******
      ****** ****** ****** ****** ****** ****** ****** ****** ****** ******
      ****** ****** ****** ****** ****** ****** ****** ****** ****** ******
  25  ****** ****** ****** ****** ****** ****** ****** ****** ****** ******
      ****** ****** ****** ****** ****** ****** ****** ****** ****** ******
      ****** ****** ****** ****** ****** ****** ****** ****** ****** ******

 HEAD WILL BE SAVED ON UNIT   51 AT END OF TIME STEP    1, STRESS PERIOD    2
1
  VOLUMETRIC BUDGET FOR ENTIRE MODEL AT END OF TIME STEP    1, STRESS PERIOD   2
  ------------------------------------------------------------------------------

     CUMULATIVE VOLUMES      L**3       RATES FOR THIS TIME STEP      L**3/T
     ------------------                 ------------------------

           IN:                                      IN:
           ---                                      ---
             STORAGE =    20398150.5891               STORAGE =        7939.4736
       CONSTANT HEAD =   224962442.2806         CONSTANT HEAD =     1251043.6845
               WELLS =           0.0000                 WELLS =           0.0000
            RECHARGE =     6292800.0000              RECHARGE =       55200.0000
      STREAM LEAKAGE =           0.0000        STREAM LEAKAGE =           0.0000

            TOTAL IN =   251653392.8697              TOTAL IN =     1314183.1581

          OUT:                                     OUT:
          ----                                     ----
             STORAGE =           0.0000               STORAGE =           0.0000
       CONSTANT HEAD =           0.0000         CONSTANT HEAD =           0.0000
               WELLS =    27907637.2500                 WELLS =      152500.7500
            RECHARGE =           0.0000              RECHARGE =           0.0000
      STREAM LEAKAGE =   223745759.3226        STREAM LEAKAGE =     1161682.4273

           TOTAL OUT =   251653396.5726             TOTAL OUT =     1314183.1773

            IN - OUT =          -3.7029              IN - OUT =      -1.9150E-02

 PERCENT DISCREPANCY =          -0.00     PERCENT DISCREPANCY =          -0.00






         TIME SUMMARY AT END OF TIME STEP    1 IN STRESS PERIOD    2
                    SECONDS     MINUTES      HOURS       DAYS        YEARS
                    -----------------------------------------------------------
   TIME STEP LENGTH 7.86240E+06 1.31040E+05  2184.0      91.000     0.24914    
 STRESS PERIOD TIME 7.86240E+06 1.31040E+05  2184.0      91.000     0.24914    
         TOTAL TIME 1.58112E+07 2.63520E+05  4392.0      183.00     0.50103    
1
1
                            STRESS PERIOD NO.    3, LENGTH =   91.00000    
                            -----------------------------------------------

                              NUMBER OF TIME STEPS =     1

                               MULTIPLIER FOR DELT =     1.500

                            INITIAL TIME STEP SIZE =   91.00000    

 WELL NO.  LAYER   ROW   COL   STRESS RATE         
 --------------------------------------------------
      1      1      4      5     -0.5000E+05
      2      1      2     11     -0.5000E+05
      3      1      6     11     -0.5250E+05

      3 WELLS

                 RECHARGE =   0.00000    

 REUSING STREAM SEGMENT DATA FROM LAST STRESS PERIOD
 
 SOLVING FOR HEAD 


     6 CALLS TO PCG ROUTINE FOR TIME STEP   1 IN STRESS PERIOD    3
    23 TOTAL ITERATIONS

 OUTPUT CONTROL FOR STRESS PERIOD    3   TIME STEP    1
    SAVE BUDGET
    SAVE HEAD FOR ALL LAYERS
    PRINT HEAD FOR ALL LAYERS
 UBDSV2 SAVING "STREAMFLOW OUT  " ON UNIT  50 AT TIME STEP  1, STRESS PERIOD   3



 STREAM LISTING     PERIOD      3   STEP        1

 LAYER ROW COL. STREAM  RCH.  FLOW INTO     FLOW TO   FLOW OUT OF   OVRLND.     DIRECT     STREAM       STREAM     STREAM     STREAM   STREAMBED  STREAMBED
                SEG.NO.  NO.  STRM. RCH.    AQUIFER    STRM. RCH.    RUNOFF     PRECIP       ET          HEAD       DEPTH      WIDTH   CONDCTNC.   GRADIENT

   1   13    1     1     1    1.0000E+05 -2.5018E+04   1.2502E+05  0.000E+00  0.000E+00  0.000E+00  4.84166E+01  1.553E-01  2.000E+01  2.000E+04 -1.251E+00
   1   13    2     1     2    1.2502E+05 -3.3935E+04   1.5895E+05  0.000E+00  0.000E+00  0.000E+00  4.79626E+01  1.785E-01  2.000E+01  2.000E+04 -1.697E+00
   1   14    3     1     3    1.5895E+05 -3.0334E+04   1.8929E+05  0.000E+00  0.000E+00  0.000E+00  4.75086E+01  2.018E-01  2.000E+01  2.000E+04 -1.517E+00
   1   15    4     1     4    1.8929E+05 -3.0225E+04   2.1951E+05  0.000E+00  0.000E+00  0.000E+00  4.70517E+01  2.221E-01  2.000E+01  2.000E+04 -1.511E+00
   1   16    5     1     5    2.1951E+05 -3.2527E+04   2.5204E+05  0.000E+00  0.000E+00  0.000E+00  4.65943E+01  2.420E-01  2.000E+01  2.000E+04 -1.626E+00
   1   16    6     1     6    2.5204E+05 -2.8182E+04   2.8022E+05  0.000E+00  0.000E+00  0.000E+00  4.61352E+01  2.602E-01  2.000E+01  2.000E+04 -1.409E+00
   1   16    7     1     7    2.8022E+05 -2.7904E+04   3.0812E+05  0.000E+00  0.000E+00  0.000E+00  4.56741E+01  2.764E-01  2.000E+01  2.000E+04 -1.395E+00
   1   16    8     1     8    3.0812E+05 -2.8042E+04   3.3617E+05  0.000E+00  0.000E+00  0.000E+00  4.52123E+01  2.918E-01  2.000E+01  2.000E+04 -1.402E+00
   1   16    9     1     9    3.3617E+05 -2.8137E+04   3.6430E+05  0.000E+00  0.000E+00  0.000E+00  4.47500E+01  3.069E-01  2.000E+01  2.000E+04 -1.407E+00
   1   16   10     1    10    3.6430E+05 -2.8245E+04   3.9255E+05  0.000E+00  0.000E+00  0.000E+00  4.42874E+01  3.214E-01  2.000E+01  2.000E+04 -1.412E+00
   1   16   11     1    11    3.9255E+05 -2.8997E+04   4.2155E+05  0.000E+00  0.000E+00  0.000E+00  4.38245E+01  3.358E-01  2.000E+01  2.000E+04 -1.450E+00
   1   16   12     1    12    4.2155E+05 -3.4675E+04   4.5622E+05  0.000E+00  0.000E+00  0.000E+00  4.33627E+01  3.513E-01  2.000E+01  2.000E+04 -1.734E+00
   1   15   13     1    13    4.5622E+05 -3.2691E+04   4.8891E+05  0.000E+00  0.000E+00  0.000E+00  4.29014E+01  3.673E-01  2.000E+01  2.000E+04 -1.635E+00
   1   14   14     1    14    4.8891E+05 -3.2800E+04   5.2171E+05  0.000E+00  0.000E+00  0.000E+00  4.24392E+01  3.823E-01  2.000E+01  2.000E+04 -1.640E+00
   1   13   15     1    15    5.2171E+05 -3.4667E+04   5.5638E+05  0.000E+00  0.000E+00  0.000E+00  4.19770E+01  3.975E-01  2.000E+01  2.000E+04 -1.733E+00
   1   12   16     1    16    5.5638E+05 -4.0383E+04   5.9676E+05  0.000E+00  0.000E+00  0.000E+00  4.15161E+01  4.138E-01  2.000E+01  2.000E+04 -2.019E+00
   1   12   17     1    17    5.9676E+05 -3.2174E+04   6.2894E+05  0.000E+00  0.000E+00  0.000E+00  4.10543E+01  4.293E-01  2.000E+01  2.000E+04 -1.609E+00
   1   12   18     1    18    6.2894E+05 -3.1024E+04   6.5996E+05  0.000E+00  0.000E+00  0.000E+00  4.05901E+01  4.424E-01  2.000E+01  2.000E+04 -1.551E+00
   1   12   19     1    19    6.5996E+05 -3.5246E+04   6.9521E+05  0.000E+00  0.000E+00  0.000E+00  4.01264E+01  4.559E-01  2.000E+01  2.000E+04 -1.762E+00
   1   13   20     1    20    6.9521E+05 -2.6122E+04   7.2133E+05  0.000E+00  0.000E+00  0.000E+00  3.96614E+01  4.682E-01  2.000E+01  2.000E+04 -1.306E+00
   1   14   21     1    21    7.2133E+05 -1.9372E+04   7.4070E+05  0.000E+00  0.000E+00  0.000E+00  3.91931E+01  4.772E-01  2.000E+01  2.000E+04 -9.686E-01
   1   14   22     1    22    7.4070E+05 -1.7014E+03   7.4240E+05  0.000E+00  0.000E+00  0.000E+00  3.87199E+01  4.813E-01  2.000E+01  2.000E+04 -8.507E-02
   1    9   30     2     1    5.0000E+04 -2.6287E+04   7.6287E+04  0.000E+00  0.000E+00  0.000E+00  4.02583E+01  1.333E-01  2.000E+01  2.000E+04 -1.314E+00
   1    9   29     2     2    7.6287E+04 -2.8743E+04   1.0503E+05  0.000E+00  0.000E+00  0.000E+00  4.00406E+01  1.656E-01  2.000E+01  2.000E+04 -1.437E+00
   1    9   28     2     3    1.0503E+05 -3.2992E+04   1.3802E+05  0.000E+00  0.000E+00  0.000E+00  3.98224E+01  1.974E-01  2.000E+01  2.000E+04 -1.650E+00
   1    9   27     2     4    1.3802E+05 -4.6969E+04   1.8499E+05  0.000E+00  0.000E+00  0.000E+00  3.96091E+01  2.341E-01  2.000E+01  2.000E+04 -2.348E+00
   1   10   26     2     5    1.8499E+05 -3.2898E+04   2.1789E+05  0.000E+00  0.000E+00  0.000E+00  3.93923E+01  2.673E-01  2.000E+01  2.000E+04 -1.645E+00
   1   11   25     2     6    2.1789E+05 -2.4537E+04   2.4243E+05  0.000E+00  0.000E+00  0.000E+00  3.91646E+01  2.896E-01  2.000E+01  2.000E+04 -1.227E+00
   1   12   24     2     7    2.4243E+05 -1.8002E+04   2.6043E+05  0.000E+00  0.000E+00  0.000E+00  3.89304E+01  3.054E-01  2.000E+01  2.000E+04 -9.001E-01
   1   13   23     2     8    2.6043E+05 -1.2748E+04   2.7318E+05  0.000E+00  0.000E+00  0.000E+00  3.86914E+01  3.164E-01  2.000E+01  2.000E+04 -6.374E-01
   1   14   22     2     9    2.7318E+05 -7.1308E+03   2.8031E+05  0.000E+00  0.000E+00  0.000E+00  3.84485E+01  3.235E-01  2.000E+01  2.000E+04 -3.565E-01
   1   14   22     3     1    1.0227E+06 -1.5259E+04   1.0380E+06  0.000E+00  0.000E+00  0.000E+00  3.80421E+01  4.865E-01  2.000E+01  2.000E+04 -7.629E-01
   1   15   23     3     2    1.0380E+06 -2.3491E+04   1.0615E+06  0.000E+00  0.000E+00  0.000E+00  3.71586E+01  4.920E-01  2.000E+01  2.000E+04 -1.175E+00
   1   15   24     3     3    1.0615E+06 -1.9562E+04   1.0810E+06  0.000E+00  0.000E+00  0.000E+00  3.62758E+01  4.980E-01  2.000E+01  2.000E+04 -9.781E-01
   1   15   25     3     4    1.0810E+06 -1.9160E+04   1.1002E+06  0.000E+00  0.000E+00  0.000E+00  3.53923E+01  5.034E-01  2.000E+01  2.000E+04 -9.580E-01
   1   15   26     3     5    1.1002E+06 -2.1886E+04   1.1221E+06  0.000E+00  0.000E+00  0.000E+00  3.45090E+01  5.090E-01  2.000E+01  2.000E+04 -1.094E+00
   1   16   27     3     6    1.1221E+06 -2.9028E+04   1.1511E+06  0.000E+00  0.000E+00  0.000E+00  3.36271E+01  5.160E-01  2.000E+01  2.000E+04 -1.451E+00
   1   17   28     3     7    1.1511E+06 -3.6087E+04   1.1872E+06  0.000E+00  0.000E+00  0.000E+00  3.27471E+01  5.248E-01  2.000E+01  2.000E+04 -1.804E+00
   1   18   29     3     8    1.1872E+06 -4.7099E+04   1.2343E+06  0.000E+00  0.000E+00  0.000E+00  3.18693E+01  5.360E-01  2.000E+01  2.000E+04 -2.355E+00
   1   18   30     3     9    1.2343E+06 -4.3555E+04   1.2778E+06  0.000E+00  0.000E+00  0.000E+00  3.09924E+01  5.479E-01  2.000E+01  2.000E+04 -2.178E+00



1
              HEAD IN LAYER   1 AT END OF TIME STEP   1 IN STRESS PERIOD    3
  ---------------------------------------------------------------------------

          1      2      3      4      5      6      7      8      9     10
         11     12     13     14     15     16     17     18     19     20
         21     22     23     24     25     26     27     28     29     30
 .........................................................................
   1  ****** ****** ****** ****** ****** ****** ****** ****** ****** ******
      ****** ****** ****** ****** ****** ****** ****** ****** ****** ******
      ****** ****** ****** ****** ****** ****** ****** ****** ****** ******
   2  ****** ****** ****** ****** ****** ****** ****** ****** ****** ******
      ****** ****** ****** ****** ****** ****** ****** ****** ****** ******
      ****** ****** ****** ****** ****** ****** ****** ****** ****** ******
   3  ****** ****** ****** ****** ****** ****** ****** ****** ****** ******
      ****** ****** ****** ****** ****** ****** ****** ****** ****** ******
      ****** ****** ****** ****** ****** ****** ****** ****** ****** ******
   4  ****** ****** ****** ****** ****** ****** ****** ****** ****** ******
      ****** ****** ****** ****** ****** ****** ****** ****** ****** ******
      ****** ****** ****** ****** ****** ****** ****** ****** ****** ******
   5  ****** ****** ****** ****** ****** ****** ****** ****** ****** ******
      ****** ****** ****** ****** ****** ****** ****** ****** ****** ******
      ****** ****** ****** ****** ****** ****** ****** ****** ****** ******
   6  ****** ****** ****** ****** ****** ****** ****** ****** ****** ******
      ****** ****** ****** ****** ****** ****** ****** ****** ****** ******
      ****** ****** ****** ****** ****** ****** ****** ****** ****** ******
   7  ****** ****** ****** ****** ****** ****** ****** ****** ****** ******
      ****** ****** ****** ****** ****** ****** ****** ****** ****** ******
      ****** ****** ****** ****** ****** ****** ****** ****** ****** ******
   8  ****** ****** ****** ****** ****** ****** ****** ****** ****** ******
      ****** ****** ****** ****** ****** ****** ****** ****** ****** ******
      ****** ****** ****** ****** ****** ****** ****** ****** ****** ******
   9  ****** ****** ****** ****** ****** ****** ****** ****** ****** ******
      ****** ****** ****** ****** ****** ****** ****** ****** ****** ******
      ****** ****** ****** ****** ****** ****** ****** ****** ****** ******
  10  ****** ****** ****** ****** ****** ****** ****** ****** ****** ******
      ****** ****** ****** ****** ****** ****** ****** ****** ****** ******
      ****** ****** ****** ****** ****** ****** ****** ****** ****** ******
  11  ****** ****** ****** ****** ****** ****** ****** ****** ****** ******
      ****** ****** ****** ****** ****** ****** ****** ****** ****** ******
      ****** ****** ****** ****** ****** ****** ****** ****** ****** ******
  12  ****** ****** ****** ****** ****** ****** ****** ****** ****** ******
      ****** ****** ****** ****** ****** ****** ****** ****** ****** ******
      ****** ****** ****** ****** ****** ****** ****** ****** ****** ******
  13  ****** ****** ****** ****** ****** ****** ****** ****** ****** ******
      ****** ****** ****** ****** ****** ****** ****** ****** ****** ******
      ****** ****** ****** ****** ****** ****** ****** ****** ****** ******
  14  ****** ****** ****** ****** ****** ****** ****** ****** ****** ******
      ****** ****** ****** ****** ****** ****** ****** ****** ****** ******
      ****** ****** ****** ****** ****** ****** ****** ****** ****** ******
  15  ****** ****** ****** ****** ****** ****** ****** ****** ****** ******
      ****** ****** ****** ****** ****** ****** ****** ****** ****** ******
      ****** ****** ****** ****** ****** ****** ****** ****** ****** ******
  16  ****** ****** ****** ****** ****** ****** ****** ****** ****** ******
      ****** ****** ****** ****** ****** ****** ****** ****** ****** ******
      ****** ****** ****** ****** ****** ****** ****** ****** ****** ******
  17  ****** ****** ****** ****** ****** ****** ****** ****** ****** ******
      ****** ****** ****** ****** ****** ****** ****** ****** ****** ******
      ****** ****** ****** ****** ****** ****** ****** ****** ****** ******
  18  ****** ****** ****** ****** ****** ****** ****** ****** ****** ******
      ****** ****** ****** ****** ****** ****** ****** ****** ****** ******
      ****** ****** ****** ****** ****** ****** ****** ****** ****** ******
  19  ****** ****** ****** ****** ****** ****** ****** ****** ****** ******
      ****** ****** ****** ****** ****** ****** ****** ****** ****** ******
      ****** ****** ****** ****** ****** ****** ****** ****** ****** ******
  20  ****** ****** ****** ****** ****** ****** ****** ****** ****** ******
      ****** ****** ****** ****** ****** ****** ****** ****** ****** ******
      ****** ****** ****** ****** ****** ****** ****** ****** ****** ******
  21  ****** ****** ****** ****** ****** ****** ****** ****** ****** ******
      ****** ****** ****** ****** ****** ****** ****** ****** ****** ******
      ****** ****** ****** ****** ****** ****** ****** ****** ****** ******
  22  ****** ****** ****** ****** ****** ****** ****** ****** ****** ******
      ****** ****** ****** ****** ****** ****** ****** ****** ****** ******
      ****** ****** ****** ****** ****** ****** ****** ****** ****** ******
  23  ****** ****** ****** ****** ****** ****** ****** ****** ****** ******
      ****** ****** ****** ****** ****** ****** ****** ****** ****** ******
      ****** ****** ****** ****** ****** ****** ****** ****** ****** ******
  24  ****** ****** ****** ****** ****** ****** ****** ****** ****** ******
      ****** ****** ****** ****** ****** ****** ****** ****** ****** ******
      ****** ****** ****** ****** ****** ****** ****** ****** ****** ******
  25  ****** ****** ****** ****** ****** ****** ****** ****** ****** ******
      ****** ****** ****** ****** ****** ****** ****** ****** ****** ******
      ****** ****** ****** ****** ****** ****** ****** ****** ****** ******

 HEAD WILL BE SAVED ON UNIT   51 AT END OF TIME STEP    1, STRESS PERIOD    3
1
  VOLUMETRIC BUDGET FOR ENTIRE MODEL AT END OF TIME STEP    1, STRESS PERIOD   3
  ------------------------------------------------------------------------------

     CUMULATIVE VOLUMES      L**3       RATES FOR THIS TIME STEP      L**3/T
     ------------------                 ------------------------

           IN:                                      IN:
           ---                                      ---
             STORAGE =    20679329.1563               STORAGE =        3089.8744
       CONSTANT HEAD =   341192011.4802         CONSTANT HEAD =     1277248.0132
               WELLS =           0.0000                 WELLS =           0.0000
            RECHARGE =     6292800.0000              RECHARGE =           0.0000
      STREAM LEAKAGE =           0.0000        STREAM LEAKAGE =           0.0000

            TOTAL IN =   368164140.6365              TOTAL IN =     1280337.8875

          OUT:                                     OUT:
          ----                                     ----
             STORAGE =           0.0000               STORAGE =           0.0000
       CONSTANT HEAD =           0.0000         CONSTANT HEAD =           0.0000
               WELLS =    41785205.5000                 WELLS =      152500.7500
            RECHARGE =           0.0000              RECHARGE =           0.0000
      STREAM LEAKAGE =   326378942.9410        STREAM LEAKAGE =     1127837.1826

           TOTAL OUT =   368164148.4410             TOTAL OUT =     1280337.9326

            IN - OUT =          -7.8045              IN - OUT =      -4.5072E-02

 PERCENT DISCREPANCY =          -0.00     PERCENT DISCREPANCY =          -0.00






         TIME SUMMARY AT END OF TIME STEP    1 IN STRESS PERIOD    3
                    SECONDS     MINUTES      HOURS       DAYS        YEARS
                    -----------------------------------------------------------
   TIME STEP LENGTH 7.86240E+06 1.31040E+05  2184.0      91.000     0.24914    
 STRESS PERIOD TIME 7.86240E+06 1.31040E+05  2184.0      91.000     0.24914    
         TOTAL TIME 2.36736E+07 3.94560E+05  6576.0      274.00     0.75017    
1
1
                            STRESS PERIOD NO.    4, LENGTH =   91.00000    
                            -----------------------------------------------

                              NUMBER OF TIME STEPS =     1

                               MULTIPLIER FOR DELT =     1.500

                            INITIAL TIME STEP SIZE =   91.00000    

 WELL NO.  LAYER   ROW   COL   STRESS RATE         
 --------------------------------------------------
      1      1      4      5     -0.5000E+05
      2      1      2     11     -0.5000E+05
      3      1      6     11     -0.5250E+05

      3 WELLS

                 RECHARGE =  1.000000E-03

 REUSING STREAM SEGMENT DATA FROM LAST STRESS PERIOD
 
 SOLVING FOR HEAD 


     6 CALLS TO PCG ROUTINE FOR TIME STEP   1 IN STRESS PERIOD    4
    22 TOTAL ITERATIONS

 OUTPUT CONTROL FOR STRESS PERIOD    4   TIME STEP    1
    SAVE BUDGET
    SAVE HEAD FOR ALL LAYERS
    PRINT HEAD FOR ALL LAYERS
 UBDSV2 SAVING "STREAMFLOW OUT  " ON UNIT  50 AT TIME STEP  1, STRESS PERIOD   4



 STREAM LISTING     PERIOD      4   STEP        1

 LAYER ROW COL. STREAM  RCH.  FLOW INTO     FLOW TO   FLOW OUT OF   OVRLND.     DIRECT     STREAM       STREAM     STREAM     STREAM   STREAMBED  STREAMBED
                SEG.NO.  NO.  STRM. RCH.    AQUIFER    STRM. RCH.    RUNOFF     PRECIP       ET          HEAD       DEPTH      WIDTH   CONDCTNC.   GRADIENT

   1   13    1     1     1    1.0000E+05 -2.5397E+04   1.2540E+05  0.000E+00  0.000E+00  0.000E+00  4.84168E+01  1.554E-01  2.000E+01  2.000E+04 -1.270E+00
   1   13    2     1     2    1.2540E+05 -3.4384E+04   1.5978E+05  0.000E+00  0.000E+00  0.000E+00  4.79631E+01  1.790E-01  2.000E+01  2.000E+04 -1.719E+00
   1   14    3     1     3    1.5978E+05 -3.0780E+04   1.9056E+05  0.000E+00  0.000E+00  0.000E+00  4.75093E+01  2.025E-01  2.000E+01  2.000E+04 -1.539E+00
   1   15    4     1     4    1.9056E+05 -3.0659E+04   2.2122E+05  0.000E+00  0.000E+00  0.000E+00  4.70526E+01  2.231E-01  2.000E+01  2.000E+04 -1.533E+00
   1   16    5     1     5    2.2122E+05 -3.2923E+04   2.5414E+05  0.000E+00  0.000E+00  0.000E+00  4.65954E+01  2.432E-01  2.000E+01  2.000E+04 -1.646E+00
   1   16    6     1     6    2.5414E+05 -2.8525E+04   2.8267E+05  0.000E+00  0.000E+00  0.000E+00  4.61366E+01  2.616E-01  2.000E+01  2.000E+04 -1.426E+00
   1   16    7     1     7    2.8267E+05 -2.8243E+04   3.1091E+05  0.000E+00  0.000E+00  0.000E+00  4.56756E+01  2.778E-01  2.000E+01  2.000E+04 -1.412E+00
   1   16    8     1     8    3.1091E+05 -2.8381E+04   3.3929E+05  0.000E+00  0.000E+00  0.000E+00  4.52139E+01  2.935E-01  2.000E+01  2.000E+04 -1.419E+00
   1   16    9     1     9    3.3929E+05 -2.8477E+04   3.6777E+05  0.000E+00  0.000E+00  0.000E+00  4.47518E+01  3.086E-01  2.000E+01  2.000E+04 -1.424E+00
   1   16   10     1    10    3.6777E+05 -2.8584E+04   3.9635E+05  0.000E+00  0.000E+00  0.000E+00  4.42892E+01  3.233E-01  2.000E+01  2.000E+04 -1.429E+00
   1   16   11     1    11    3.9635E+05 -2.9342E+04   4.2569E+05  0.000E+00  0.000E+00  0.000E+00  4.38264E+01  3.378E-01  2.000E+01  2.000E+04 -1.467E+00
   1   16   12     1    12    4.2569E+05 -3.5077E+04   4.6077E+05  0.000E+00  0.000E+00  0.000E+00  4.33648E+01  3.534E-01  2.000E+01  2.000E+04 -1.754E+00
   1   15   13     1    13    4.6077E+05 -3.3132E+04   4.9390E+05  0.000E+00  0.000E+00  0.000E+00  4.29036E+01  3.695E-01  2.000E+01  2.000E+04 -1.657E+00
   1   14   14     1    14    4.9390E+05 -3.3253E+04   5.2716E+05  0.000E+00  0.000E+00  0.000E+00  4.24415E+01  3.847E-01  2.000E+01  2.000E+04 -1.663E+00
   1   13   15     1    15    5.2716E+05 -3.5115E+04   5.6227E+05  0.000E+00  0.000E+00  0.000E+00  4.19795E+01  4.000E-01  2.000E+01  2.000E+04 -1.756E+00
   1   12   16     1    16    5.6227E+05 -4.0813E+04   6.0308E+05  0.000E+00  0.000E+00  0.000E+00  4.15187E+01  4.165E-01  2.000E+01  2.000E+04 -2.041E+00
   1   12   17     1    17    6.0308E+05 -3.2525E+04   6.3561E+05  0.000E+00  0.000E+00  0.000E+00  4.10570E+01  4.320E-01  2.000E+01  2.000E+04 -1.626E+00
   1   12   18     1    18    6.3561E+05 -3.1361E+04   6.6697E+05  0.000E+00  0.000E+00  0.000E+00  4.05930E+01  4.452E-01  2.000E+01  2.000E+04 -1.568E+00
   1   12   19     1    19    6.6697E+05 -3.5616E+04   7.0259E+05  0.000E+00  0.000E+00  0.000E+00  4.01293E+01  4.588E-01  2.000E+01  2.000E+04 -1.781E+00
   1   13   20     1    20    7.0259E+05 -2.6472E+04   7.2906E+05  0.000E+00  0.000E+00  0.000E+00  3.96644E+01  4.712E-01  2.000E+01  2.000E+04 -1.324E+00
   1   14   21     1    21    7.2906E+05 -1.9675E+04   7.4873E+05  0.000E+00  0.000E+00  0.000E+00  3.91962E+01  4.803E-01  2.000E+01  2.000E+04 -9.837E-01
   1   14   22     1    22    7.4873E+05 -1.8095E+03   7.5054E+05  0.000E+00  0.000E+00  0.000E+00  3.87231E+01  4.844E-01  2.000E+01  2.000E+04 -9.048E-02
   1    9   30     2     1    5.0000E+04 -2.6566E+04   7.6566E+04  0.000E+00  0.000E+00  0.000E+00  4.02585E+01  1.335E-01  2.000E+01  2.000E+04 -1.328E+00
   1    9   29     2     2    7.6566E+04 -2.9021E+04   1.0559E+05  0.000E+00  0.000E+00  0.000E+00  4.00410E+01  1.660E-01  2.000E+01  2.000E+04 -1.451E+00
   1    9   28     2     3    1.0559E+05 -3.3279E+04   1.3887E+05  0.000E+00  0.000E+00  0.000E+00  3.98231E+01  1.981E-01  2.000E+01  2.000E+04 -1.664E+00
   1    9   27     2     4    1.3887E+05 -4.7316E+04   1.8618E+05  0.000E+00  0.000E+00  0.000E+00  3.96100E+01  2.350E-01  2.000E+01  2.000E+04 -2.366E+00
   1   10   26     2     5    1.8618E+05 -3.3260E+04   2.1944E+05  0.000E+00  0.000E+00  0.000E+00  3.93934E+01  2.684E-01  2.000E+01  2.000E+04 -1.663E+00
   1   11   25     2     6    2.1944E+05 -2.4886E+04   2.4433E+05  0.000E+00  0.000E+00  0.000E+00  3.91659E+01  2.909E-01  2.000E+01  2.000E+04 -1.244E+00
   1   12   24     2     7    2.4433E+05 -1.8314E+04   2.6264E+05  0.000E+00  0.000E+00  0.000E+00  3.89319E+01  3.069E-01  2.000E+01  2.000E+04 -9.157E-01
   1   13   23     2     8    2.6264E+05 -1.3002E+04   2.7564E+05  0.000E+00  0.000E+00  0.000E+00  3.86931E+01  3.181E-01  2.000E+01  2.000E+04 -6.501E-01
   1   14   22     2     9    2.7564E+05 -7.2663E+03   2.8291E+05  0.000E+00  0.000E+00  0.000E+00  3.84502E+01  3.252E-01  2.000E+01  2.000E+04 -3.633E-01
   1   14   22     3     1    1.0335E+06 -1.5369E+04   1.0488E+06  0.000E+00  0.000E+00  0.000E+00  3.80451E+01  4.896E-01  2.000E+01  2.000E+04 -7.684E-01
   1   15   23     3     2    1.0488E+06 -2.3775E+04   1.0726E+06  0.000E+00  0.000E+00  0.000E+00  3.71617E+01  4.951E-01  2.000E+01  2.000E+04 -1.189E+00
   1   15   24     3     3    1.0726E+06 -1.9799E+04   1.0924E+06  0.000E+00  0.000E+00  0.000E+00  3.62789E+01  5.011E-01  2.000E+01  2.000E+04 -9.899E-01
   1   15   25     3     4    1.0924E+06 -1.9397E+04   1.1118E+06  0.000E+00  0.000E+00  0.000E+00  3.53954E+01  5.066E-01  2.000E+01  2.000E+04 -9.698E-01
   1   15   26     3     5    1.1118E+06 -2.2162E+04   1.1340E+06  0.000E+00  0.000E+00  0.000E+00  3.45123E+01  5.123E-01  2.000E+01  2.000E+04 -1.108E+00
   1   16   27     3     6    1.1340E+06 -2.9361E+04   1.1633E+06  0.000E+00  0.000E+00  0.000E+00  3.36304E+01  5.193E-01  2.000E+01  2.000E+04 -1.468E+00
   1   17   28     3     7    1.1633E+06 -3.6428E+04   1.1997E+06  0.000E+00  0.000E+00  0.000E+00  3.27504E+01  5.282E-01  2.000E+01  2.000E+04 -1.821E+00
   1   18   29     3     8    1.1997E+06 -4.7418E+04   1.2472E+06  0.000E+00  0.000E+00  0.000E+00  3.18727E+01  5.393E-01  2.000E+01  2.000E+04 -2.371E+00
   1   18   30     3     9    1.2472E+06 -4.3823E+04   1.2910E+06  0.000E+00  0.000E+00  0.000E+00  3.09957E+01  5.513E-01  2.000E+01  2.000E+04 -2.191E+00



1
              HEAD IN LAYER   1 AT END OF TIME STEP   1 IN STRESS PERIOD    4
  ---------------------------------------------------------------------------

          1      2      3      4      5      6      7      8      9     10
         11     12     13     14     15     16     17     18     19     20
         21     22     23     24     25     26     27     28     29     30
 .........................................................................
   1  ****** ****** ****** ****** ****** ****** ****** ****** ****** ******
      ****** ****** ****** ****** ****** ****** ****** ****** ****** ******
      ****** ****** ****** ****** ****** ****** ****** ****** ****** ******
   2  ****** ****** ****** ****** ****** ****** ****** ****** ****** ******
      ****** ****** ****** ****** ****** ****** ****** ****** ****** ******
      ****** ****** ****** ****** ****** ****** ****** ****** ****** ******
   3  ****** ****** ****** ****** ****** ****** ****** ****** ****** ******
      ****** ****** ****** ****** ****** ****** ****** ****** ****** ******
      ****** ****** ****** ****** ****** ****** ****** ****** ****** ******
   4  ****** ****** ****** ****** ****** ****** ****** ****** ****** ******
      ****** ****** ****** ****** ****** ****** ****** ****** ****** ******
      ****** ****** ****** ****** ****** ****** ****** ****** ****** ******
   5  ****** ****** ****** ****** ****** ****** ****** ****** ****** ******
      ****** ****** ****** ****** ****** ****** ****** ****** ****** ******
      ****** ****** ****** ****** ****** ****** ****** ****** ****** ******
   6  ****** ****** ****** ****** ****** ****** ****** ****** ****** ******
      ****** ****** ****** ****** ****** ****** ****** ****** ****** ******
      ****** ****** ****** ****** ****** ****** ****** ****** ****** ******
   7  ****** ****** ****** ****** ****** ****** ****** ****** ****** ******
      ****** ****** ****** ****** ****** ****** ****** ****** ****** ******
      ****** ****** ****** ****** ****** ****** ****** ****** ****** ******
   8  ****** ****** ****** ****** ****** ****** ****** ****** ****** ******
      ****** ****** ****** ****** ****** ****** ****** ****** ****** ******
      ****** ****** ****** ****** ****** ****** ****** ****** ****** ******
   9  ****** ****** ****** ****** ****** ****** ****** ****** ****** ******
      ****** ****** ****** ****** ****** ****** ****** ****** ****** ******
      ****** ****** ****** ****** ****** ****** ****** ****** ****** ******
  10  ****** ****** ****** ****** ****** ****** ****** ****** ****** ******
      ****** ****** ****** ****** ****** ****** ****** ****** ****** ******
      ****** ****** ****** ****** ****** ****** ****** ****** ****** ******
  11  ****** ****** ****** ****** ****** ****** ****** ****** ****** ******
      ****** ****** ****** ****** ****** ****** ****** ****** ****** ******
      ****** ****** ****** ****** ****** ****** ****** ****** ****** ******
  12  ****** ****** ****** ****** ****** ****** ****** ****** ****** ******
      ****** ****** ****** ****** ****** ****** ****** ****** ****** ******
      ****** ****** ****** ****** ****** ****** ****** ****** ****** ******
  13  ****** ****** ****** ****** ****** ****** ****** ****** ****** ******
      ****** ****** ****** ****** ****** ****** ****** ****** ****** ******
      ****** ****** ****** ****** ****** ****** ****** ****** ****** ******
  14  ****** ****** ****** ****** ****** ****** ****** ****** ****** ******
      ****** ****** ****** ****** ****** ****** ****** ****** ****** ******
      ****** ****** ****** ****** ****** ****** ****** ****** ****** ******
  15  ****** ****** ****** ****** ****** ****** ****** ****** ****** ******
      ****** ****** ****** ****** ****** ****** ****** ****** ****** ******
      ****** ****** ****** ****** ****** ****** ****** ****** ****** ******
  16  ****** ****** ****** ****** ****** ****** ****** ****** ****** ******
      ****** ****** ****** ****** ****** ****** ****** ****** ****** ******
      ****** ****** ****** ****** ****** ****** ****** ****** ****** ******
  17  ****** ****** ****** ****** ****** ****** ****** ****** ****** ******
      ****** ****** ****** ****** ****** ****** ****** ****** ****** ******
      ****** ****** ****** ****** ****** ****** ****** ****** ****** ******
  18  ****** ****** ****** ****** ****** ****** ****** ****** ****** ******
      ****** ****** ****** ****** ****** ****** ****** ****** ****** ******
      ****** ****** ****** ****** ****** ****** ****** ****** ****** ******
  19  ****** ****** ****** ****** ****** ****** ****** ****** ****** ******
      ****** ****** ****** ****** ****** ****** ****** ****** ****** ******
      ****** ****** ****** ****** ****** ****** ****** ****** ****** ******
  20  ****** ****** ****** ****** ****** ****** ****** ****** ****** ******
      ****** ****** ****** ****** ****** ****** ****** ****** ****** ******
      ****** ****** ****** ****** ****** ****** ****** ****** ****** ******
  21  ****** ****** ****** ****** ****** ****** ****** ****** ****** ******
      ****** ****** ****** ****** ****** ****** ****** ****** ****** ******
      ****** ****** ****** ****** ****** ****** ****** ****** ****** ******
  22  ****** ****** ****** ****** ****** ****** ****** ****** ****** ******
      ****** ****** ****** ****** ****** ****** ****** ****** ****** ******
      ****** ****** ****** ****** ****** ****** ****** ****** ****** ******
  23  ****** ****** ****** ****** ****** ****** ****** ****** ****** ******
      ****** ****** ****** ****** ****** ****** ****** ****** ****** ******
      ****** ****** ****** ****** ****** ****** ****** ****** ****** ******
  24  ****** ****** ****** ****** ****** ****** ****** ****** ****** ******
      ****** ****** ****** ****** ****** ****** ****** ****** ****** ******
      ****** ****** ****** ****** ****** ****** ****** ****** ****** ******
  25  ****** ****** ****** ****** ****** ****** ****** ****** ****** ******
      ****** ****** ****** ****** ****** ****** ****** ****** ****** ******
      ****** ****** ****** ****** ****** ****** ****** ****** ****** ******

 HEAD WILL BE SAVED ON UNIT   51 AT END OF TIME STEP    1, STRESS PERIOD    4
1
  VOLUMETRIC BUDGET FOR ENTIRE MODEL AT END OF TIME STEP    1, STRESS PERIOD   4
  ------------------------------------------------------------------------------

     CUMULATIVE VOLUMES      L**3       RATES FOR THIS TIME STEP      L**3/T
     ------------------                 ------------------------

           IN:                                      IN:
           ---                                      ---
             STORAGE =    20679329.1563               STORAGE =           0.0000
       CONSTANT HEAD =   456490538.0011         CONSTANT HEAD =     1267016.7750
               WELLS =           0.0000                 WELLS =           0.0000
            RECHARGE =     8804400.0000              RECHARGE =       27600.0000
      STREAM LEAKAGE =           0.0000        STREAM LEAKAGE =           0.0000

            TOTAL IN =   485974267.1574              TOTAL IN =     1294616.7750

          OUT:                                     OUT:
          ----                                     ----
             STORAGE =      103088.6463               STORAGE =        1132.8423
       CONSTANT HEAD =           0.0000         CONSTANT HEAD =           0.0000
               WELLS =    55662773.7500                 WELLS =      152500.7500
            RECHARGE =           0.0000              RECHARGE =           0.0000
      STREAM LEAKAGE =   430208410.6911        STREAM LEAKAGE =     1140983.1621

           TOTAL OUT =   485974273.0874             TOTAL OUT =     1294616.7544

            IN - OUT =          -5.9299              IN - OUT =       2.0599E-02

 PERCENT DISCREPANCY =          -0.00     PERCENT DISCREPANCY =           0.00






         TIME SUMMARY AT END OF TIME STEP    1 IN STRESS PERIOD    4
                    SECONDS     MINUTES      HOURS       DAYS        YEARS
                    -----------------------------------------------------------
   TIME STEP LENGTH 7.86240E+06 1.31040E+05  2184.0      91.000     0.24914    
 STRESS PERIOD TIME 7.86240E+06 1.31040E+05  2184.0      91.000     0.24914    
         TOTAL TIME 3.15360E+07 5.25600E+05  8760.0      365.00     0.99932    
1
1
                            STRESS PERIOD NO.    5, LENGTH =   92.00000    
                            -----------------------------------------------

                              NUMBER OF TIME STEPS =     1

                               MULTIPLIER FOR DELT =     1.500

                            INITIAL TIME STEP SIZE =   92.00000    

 WELL NO.  LAYER   ROW   COL   STRESS RATE         
 --------------------------------------------------
      1      1      4      5     -0.5000E+05
      2      1      2     11     -0.5000E+05
      3      1      6     11     -0.5250E+05

      3 WELLS

                 RECHARGE =  5.000000E-04

 REUSING STREAM SEGMENT DATA FROM LAST STRESS PERIOD
 
 SOLVING FOR HEAD 


     5 CALLS TO PCG ROUTINE FOR TIME STEP   1 IN STRESS PERIOD    5
    20 TOTAL ITERATIONS

 OUTPUT CONTROL FOR STRESS PERIOD    5   TIME STEP    1
    SAVE BUDGET
    SAVE HEAD FOR ALL LAYERS
    PRINT HEAD FOR ALL LAYERS
 UBDSV2 SAVING "STREAMFLOW OUT  " ON UNIT  50 AT TIME STEP  1, STRESS PERIOD   5



 STREAM LISTING     PERIOD      5   STEP        1

 LAYER ROW COL. STREAM  RCH.  FLOW INTO     FLOW TO   FLOW OUT OF   OVRLND.     DIRECT     STREAM       STREAM     STREAM     STREAM   STREAMBED  STREAMBED
                SEG.NO.  NO.  STRM. RCH.    AQUIFER    STRM. RCH.    RUNOFF     PRECIP       ET          HEAD       DEPTH      WIDTH   CONDCTNC.   GRADIENT

   1   13    1     1     1    1.0000E+05 -2.5197E+04   1.2520E+05  0.000E+00  0.000E+00  0.000E+00  4.84167E+01  1.553E-01  2.000E+01  2.000E+04 -1.260E+00
   1   13    2     1     2    1.2520E+05 -3.4147E+04   1.5934E+05  0.000E+00  0.000E+00  0.000E+00  4.79628E+01  1.787E-01  2.000E+01  2.000E+04 -1.707E+00
   1   14    3     1     3    1.5934E+05 -3.0546E+04   1.8989E+05  0.000E+00  0.000E+00  0.000E+00  4.75089E+01  2.021E-01  2.000E+01  2.000E+04 -1.527E+00
   1   15    4     1     4    1.8989E+05 -3.0433E+04   2.2032E+05  0.000E+00  0.000E+00  0.000E+00  4.70521E+01  2.226E-01  2.000E+01  2.000E+04 -1.522E+00
   1   16    5     1     5    2.2032E+05 -3.2718E+04   2.5304E+05  0.000E+00  0.000E+00  0.000E+00  4.65948E+01  2.426E-01  2.000E+01  2.000E+04 -1.636E+00
   1   16    6     1     6    2.5304E+05 -2.8347E+04   2.8139E+05  0.000E+00  0.000E+00  0.000E+00  4.61359E+01  2.609E-01  2.000E+01  2.000E+04 -1.417E+00
   1   16    7     1     7    2.8139E+05 -2.8067E+04   3.0945E+05  0.000E+00  0.000E+00  0.000E+00  4.56748E+01  2.771E-01  2.000E+01  2.000E+04 -1.403E+00
   1   16    8     1     8    3.0945E+05 -2.8205E+04   3.3766E+05  0.000E+00  0.000E+00  0.000E+00  4.52131E+01  2.926E-01  2.000E+01  2.000E+04 -1.410E+00
   1   16    9     1     9    3.3766E+05 -2.8300E+04   3.6596E+05  0.000E+00  0.000E+00  0.000E+00  4.47509E+01  3.077E-01  2.000E+01  2.000E+04 -1.415E+00
   1   16   10     1    10    3.6596E+05 -2.8408E+04   3.9437E+05  0.000E+00  0.000E+00  0.000E+00  4.42882E+01  3.223E-01  2.000E+01  2.000E+04 -1.420E+00
   1   16   11     1    11    3.9437E+05 -2.9163E+04   4.2353E+05  0.000E+00  0.000E+00  0.000E+00  4.38254E+01  3.368E-01  2.000E+01  2.000E+04 -1.458E+00
   1   16   12     1    12    4.2353E+05 -3.4869E+04   4.5840E+05  0.000E+00  0.000E+00  0.000E+00  4.33637E+01  3.523E-01  2.000E+01  2.000E+04 -1.743E+00
   1   15   13     1    13    4.5840E+05 -3.2903E+04   4.9130E+05  0.000E+00  0.000E+00  0.000E+00  4.29024E+01  3.683E-01  2.000E+01  2.000E+04 -1.645E+00
   1   14   14     1    14    4.9130E+05 -3.3017E+04   5.2432E+05  0.000E+00  0.000E+00  0.000E+00  4.24403E+01  3.835E-01  2.000E+01  2.000E+04 -1.651E+00
   1   13   15     1    15    5.2432E+05 -3.4881E+04   5.5920E+05  0.000E+00  0.000E+00  0.000E+00  4.19782E+01  3.987E-01  2.000E+01  2.000E+04 -1.744E+00
   1   12   16     1    16    5.5920E+05 -4.0588E+04   5.9979E+05  0.000E+00  0.000E+00  0.000E+00  4.15174E+01  4.151E-01  2.000E+01  2.000E+04 -2.029E+00
   1   12   17     1    17    5.9979E+05 -3.2342E+04   6.3213E+05  0.000E+00  0.000E+00  0.000E+00  4.10556E+01  4.306E-01  2.000E+01  2.000E+04 -1.617E+00
   1   12   18     1    18    6.3213E+05 -3.1186E+04   6.6332E+05  0.000E+00  0.000E+00  0.000E+00  4.05915E+01  4.438E-01  2.000E+01  2.000E+04 -1.559E+00
   1   12   19     1    19    6.6332E+05 -3.5424E+04   6.9874E+05  0.000E+00  0.000E+00  0.000E+00  4.01278E+01  4.573E-01  2.000E+01  2.000E+04 -1.771E+00
   1   13   20     1    20    6.9874E+05 -2.6292E+04   7.2503E+05  0.000E+00  0.000E+00  0.000E+00  3.96628E+01  4.696E-01  2.000E+01  2.000E+04 -1.315E+00
   1   14   21     1    21    7.2503E+05 -1.9519E+04   7.4455E+05  0.000E+00  0.000E+00  0.000E+00  3.91946E+01  4.787E-01  2.000E+01  2.000E+04 -9.760E-01
   1   14   22     1    22    7.4455E+05 -1.7545E+03   7.4631E+05  0.000E+00  0.000E+00  0.000E+00  3.87214E+01  4.828E-01  2.000E+01  2.000E+04 -8.773E-02
   1    9   30     2     1    5.0000E+04 -2.6424E+04   7.6424E+04  0.000E+00  0.000E+00  0.000E+00  4.02584E+01  1.334E-01  2.000E+01  2.000E+04 -1.321E+00
   1    9   29     2     2    7.6424E+04 -2.8880E+04   1.0530E+05  0.000E+00  0.000E+00  0.000E+00  4.00408E+01  1.658E-01  2.000E+01  2.000E+04 -1.444E+00
   1    9   28     2     3    1.0530E+05 -3.3133E+04   1.3844E+05  0.000E+00  0.000E+00  0.000E+00  3.98227E+01  1.977E-01  2.000E+01  2.000E+04 -1.657E+00
   1    9   27     2     4    1.3844E+05 -4.7139E+04   1.8558E+05  0.000E+00  0.000E+00  0.000E+00  3.96096E+01  2.346E-01  2.000E+01  2.000E+04 -2.357E+00
   1   10   26     2     5    1.8558E+05 -3.3075E+04   2.1865E+05  0.000E+00  0.000E+00  0.000E+00  3.93929E+01  2.679E-01  2.000E+01  2.000E+04 -1.654E+00
   1   11   25     2     6    2.1865E+05 -2.4707E+04   2.4336E+05  0.000E+00  0.000E+00  0.000E+00  3.91652E+01  2.902E-01  2.000E+01  2.000E+04 -1.235E+00
   1   12   24     2     7    2.4336E+05 -1.8155E+04   2.6151E+05  0.000E+00  0.000E+00  0.000E+00  3.89311E+01  3.061E-01  2.000E+01  2.000E+04 -9.077E-01
   1   13   23     2     8    2.6151E+05 -1.2872E+04   2.7439E+05  0.000E+00  0.000E+00  0.000E+00  3.86923E+01  3.173E-01  2.000E+01  2.000E+04 -6.436E-01
   1   14   22     2     9    2.7439E+05 -7.1967E+03   2.8158E+05  0.000E+00  0.000E+00  0.000E+00  3.84493E+01  3.243E-01  2.000E+01  2.000E+04 -3.598E-01
   1   14   22     3     1    1.0279E+06 -1.5313E+04   1.0432E+06  0.000E+00  0.000E+00  0.000E+00  3.80435E+01  4.880E-01  2.000E+01  2.000E+04 -7.656E-01
   1   15   23     3     2    1.0432E+06 -2.3630E+04   1.0668E+06  0.000E+00  0.000E+00  0.000E+00  3.71601E+01  4.935E-01  2.000E+01  2.000E+04 -1.181E+00
   1   15   24     3     3    1.0668E+06 -1.9678E+04   1.0865E+06  0.000E+00  0.000E+00  0.000E+00  3.62773E+01  4.995E-01  2.000E+01  2.000E+04 -9.839E-01
   1   15   25     3     4    1.0865E+06 -1.9276E+04   1.1058E+06  0.000E+00  0.000E+00  0.000E+00  3.53938E+01  5.049E-01  2.000E+01  2.000E+04 -9.638E-01
   1   15   26     3     5    1.1058E+06 -2.2022E+04   1.1278E+06  0.000E+00  0.000E+00  0.000E+00  3.45106E+01  5.106E-01  2.000E+01  2.000E+04 -1.101E+00
   1   16   27     3     6    1.1278E+06 -2.9192E+04   1.1570E+06  0.000E+00  0.000E+00  0.000E+00  3.36287E+01  5.176E-01  2.000E+01  2.000E+04 -1.460E+00
   1   17   28     3     7    1.1570E+06 -3.6255E+04   1.1933E+06  0.000E+00  0.000E+00  0.000E+00  3.27487E+01  5.264E-01  2.000E+01  2.000E+04 -1.813E+00
   1   18   29     3     8    1.1933E+06 -4.7256E+04   1.2405E+06  0.000E+00  0.000E+00  0.000E+00  3.18709E+01  5.376E-01  2.000E+01  2.000E+04 -2.363E+00
   1   18   30     3     9    1.2405E+06 -4.3687E+04   1.2842E+06  0.000E+00  0.000E+00  0.000E+00  3.09940E+01  5.496E-01  2.000E+01  2.000E+04 -2.184E+00



1
              HEAD IN LAYER   1 AT END OF TIME STEP   1 IN STRESS PERIOD    5
  ---------------------------------------------------------------------------

          1      2      3      4      5      6      7      8      9     10
         11     12     13     14     15     16     17     18     19     20
         21     22     23     24     25     26     27     28     29     30
 .........................................................................
   1  ****** ****** ****** ****** ****** ****** ****** ****** ****** ******
      ****** ****** ****** ****** ****** ****** ****** ****** ****** ******
      ****** ****** ****** ****** ****** ****** ****** ****** ****** ******
   2  ****** ****** ****** ****** ****** ****** ****** ****** ****** ******
      ****** ****** ****** ****** ****** ****** ****** ****** ****** ******
      ****** ****** ****** ****** ****** ****** ****** ****** ****** ******
   3  ****** ****** ****** ****** ****** ****** ****** ****** ****** ******
      ****** ****** ****** ****** ****** ****** ****** ****** ****** ******
      ****** ****** ****** ****** ****** ****** ****** ****** ****** ******
   4  ****** ****** ****** ****** ****** ****** ****** ****** ****** ******
      ****** ****** ****** ****** ****** ****** ****** ****** ****** ******
      ****** ****** ****** ****** ****** ****** ****** ****** ****** ******
   5  ****** ****** ****** ****** ****** ****** ****** ****** ****** ******
      ****** ****** ****** ****** ****** ****** ****** ****** ****** ******
      ****** ****** ****** ****** ****** ****** ****** ****** ****** ******
   6  ****** ****** ****** ****** ****** ****** ****** ****** ****** ******
      ****** ****** ****** ****** ****** ****** ****** ****** ****** ******
      ****** ****** ****** ****** ****** ****** ****** ****** ****** ******
   7  ****** ****** ****** ****** ****** ****** ****** ****** ****** ******
      ****** ****** ****** ****** ****** ****** ****** ****** ****** ******
      ****** ****** ****** ****** ****** ****** ****** ****** ****** ******
   8  ****** ****** ****** ****** ****** ****** ****** ****** ****** ******
      ****** ****** ****** ****** ****** ****** ****** ****** ****** ******
      ****** ****** ****** ****** ****** ****** ****** ****** ****** ******
   9  ****** ****** ****** ****** ****** ****** ****** ****** ****** ******
      ****** ****** ****** ****** ****** ****** ****** ****** ****** ******
      ****** ****** ****** ****** ****** ****** ****** ****** ****** ******
  10  ****** ****** ****** ****** ****** ****** ****** ****** ****** ******
      ****** ****** ****** ****** ****** ****** ****** ****** ****** ******
      ****** ****** ****** ****** ****** ****** ****** ****** ****** ******
  11  ****** ****** ****** ****** ****** ****** ****** ****** ****** ******
      ****** ****** ****** ****** ****** ****** ****** ****** ****** ******
      ****** ****** ****** ****** ****** ****** ****** ****** ****** ******
  12  ****** ****** ****** ****** ****** ****** ****** ****** ****** ******
      ****** ****** ****** ****** ****** ****** ****** ****** ****** ******
      ****** ****** ****** ****** ****** ****** ****** ****** ****** ******
  13  ****** ****** ****** ****** ****** ****** ****** ****** ****** ******
      ****** ****** ****** ****** ****** ****** ****** ****** ****** ******
      ****** ****** ****** ****** ****** ****** ****** ****** ****** ******
  14  ****** ****** ****** ****** ****** ****** ****** ****** ****** ******
      ****** ****** ****** ****** ****** ****** ****** ****** ****** ******
      ****** ****** ****** ****** ****** ****** ****** ****** ****** ******
  15  ****** ****** ****** ****** ****** ****** ****** ****** ****** ******
      ****** ****** ****** ****** ****** ****** ****** ****** ****** ******
      ****** ****** ****** ****** ****** ****** ****** ****** ****** ******
  16  ****** ****** ****** ****** ****** ****** ****** ****** ****** ******
      ****** ****** ****** ****** ****** ****** ****** ****** ****** ******
      ****** ****** ****** ****** ****** ****** ****** ****** ****** ******
  17  ****** ****** ****** ****** ****** ****** ****** ****** ****** ******
      ****** ****** ****** ****** ****** ****** ****** ****** ****** ******
      ****** ****** ****** ****** ****** ****** ****** ****** ****** ******
  18  ****** ****** ****** ****** ****** ****** ****** ****** ****** ******
      ****** ****** ****** ****** ****** ****** ****** ****** ****** ******
      ****** ****** ****** ****** ****** ****** ****** ****** ****** ******
  19  ****** ****** ****** ****** ****** ****** ****** ****** ****** ******
      ****** ****** ****** ****** ****** ****** ****** ****** ****** ******
      ****** ****** ****** ****** ****** ****** ****** ****** ****** ******
  20  ****** ****** ****** ****** ****** ****** ****** ****** ****** ******
      ****** ****** ****** ****** ****** ****** ****** ****** ****** ******
      ****** ****** ****** ****** ****** ****** ****** ****** ****** ******
  21  ****** ****** ****** ****** ****** ****** ****** ****** ****** ******
      ****** ****** ****** ****** ****** ****** ****** ****** ****** ******
      ****** ****** ****** ****** ****** ****** ****** ****** ****** ******
  22  ****** ****** ****** ****** ****** ****** ****** ****** ****** ******
      ****** ****** ****** ****** ****** ****** ****** ****** ****** ******
      ****** ****** ****** ****** ****** ****** ****** ****** ****** ******
  23  ****** ****** ****** ****** ****** ****** ****** ****** ****** ******
      ****** ****** ****** ****** ****** ****** ****** ****** ****** ******
      ****** ****** ****** ****** ****** ****** ****** ****** ****** ******
  24  ****** ****** ****** ****** ****** ****** ****** ****** ****** ******
      ****** ****** ****** ****** ****** ****** ****** ****** ****** ******
      ****** ****** ****** ****** ****** ****** ****** ****** ****** ******
  25  ****** ****** ****** ****** ****** ****** ****** ****** ****** ******
      ****** ****** ****** ****** ****** ****** ****** ****** ****** ******
      ****** ****** ****** ****** ****** ****** ****** ****** ****** ******

 HEAD WILL BE SAVED ON UNIT   51 AT END OF TIME STEP    1, STRESS PERIOD    5
1
  VOLUMETRIC BUDGET FOR ENTIRE MODEL AT END OF TIME STEP    1, STRESS PERIOD   5
  ------------------------------------------------------------------------------

     CUMULATIVE VOLUMES      L**3       RATES FOR THIS TIME STEP      L**3/T
     ------------------                 ------------------------

           IN:                                      IN:
           ---                                      ---
             STORAGE =    20733261.9680               STORAGE =         586.2262
       CONSTANT HEAD =   573543358.0044         CONSTANT HEAD =     1272313.2609
               WELLS =           0.0000                 WELLS =           0.0000
            RECHARGE =    10074000.0000              RECHARGE =       13800.0000
      STREAM LEAKAGE =           0.0000        STREAM LEAKAGE =           0.0000

            TOTAL IN =   604350619.9724              TOTAL IN =     1286699.4871

          OUT:                                     OUT:
          ----                                     ----
             STORAGE =      103088.6463               STORAGE =           0.0000
       CONSTANT HEAD =           0.0000         CONSTANT HEAD =           0.0000
               WELLS =    69692842.7500                 WELLS =      152500.7500
            RECHARGE =           0.0000              RECHARGE =           0.0000
      STREAM LEAKAGE =   534554696.3749        STREAM LEAKAGE =     1134198.7574

           TOTAL OUT =   604350627.7712             TOTAL OUT =     1286699.5074

            IN - OUT =          -7.7988              IN - OUT =      -2.0314E-02

 PERCENT DISCREPANCY =          -0.00     PERCENT DISCREPANCY =          -0.00






         TIME SUMMARY AT END OF TIME STEP    1 IN STRESS PERIOD    5
                    SECONDS     MINUTES      HOURS       DAYS        YEARS
                    -----------------------------------------------------------
   TIME STEP LENGTH 7.94880E+06 1.32480E+05  2208.0      92.000     0.25188    
 STRESS PERIOD TIME 7.94880E+06 1.32480E+05  2208.0      92.000     0.25188    
         TOTAL TIME 3.94848E+07 6.58080E+05  10968.      457.00      1.2512    
1
1
                            STRESS PERIOD NO.    6, LENGTH =   91.00000    
                            -----------------------------------------------

                              NUMBER OF TIME STEPS =     1

                               MULTIPLIER FOR DELT =     1.500

                            INITIAL TIME STEP SIZE =   91.00000    

 WELL NO.  LAYER   ROW   COL   STRESS RATE         
 --------------------------------------------------
      1      1      4      5     -0.5000E+05
      2      1      2     11     -0.5000E+05
      3      1      6     11     -0.5250E+05

      3 WELLS

                 RECHARGE =  2.000000E-03

 REUSING STREAM SEGMENT DATA FROM LAST STRESS PERIOD
 
 SOLVING FOR HEAD 


     6 CALLS TO PCG ROUTINE FOR TIME STEP   1 IN STRESS PERIOD    6
    22 TOTAL ITERATIONS

 OUTPUT CONTROL FOR STRESS PERIOD    6   TIME STEP    1
    SAVE BUDGET
    SAVE HEAD FOR ALL LAYERS
    PRINT HEAD FOR ALL LAYERS
 UBDSV2 SAVING "STREAMFLOW OUT  " ON UNIT  50 AT TIME STEP  1, STRESS PERIOD   6



 STREAM LISTING     PERIOD      6   STEP        1

 LAYER ROW COL. STREAM  RCH.  FLOW INTO     FLOW TO   FLOW OUT OF   OVRLND.     DIRECT     STREAM       STREAM     STREAM     STREAM   STREAMBED  STREAMBED
                SEG.NO.  NO.  STRM. RCH.    AQUIFER    STRM. RCH.    RUNOFF     PRECIP       ET          HEAD       DEPTH      WIDTH   CONDCTNC.   GRADIENT

   1   13    1     1     1    1.0000E+05 -2.5849E+04   1.2585E+05  0.000E+00  0.000E+00  0.000E+00  4.84170E+01  1.556E-01  2.000E+01  2.000E+04 -1.292E+00
   1   13    2     1     2    1.2585E+05 -3.4926E+04   1.6078E+05  0.000E+00  0.000E+00  0.000E+00  4.79636E+01  1.795E-01  2.000E+01  2.000E+04 -1.746E+00
   1   14    3     1     3    1.6078E+05 -3.1308E+04   1.9208E+05  0.000E+00  0.000E+00  0.000E+00  4.75102E+01  2.034E-01  2.000E+01  2.000E+04 -1.565E+00
   1   15    4     1     4    1.9208E+05 -3.1165E+04   2.2325E+05  0.000E+00  0.000E+00  0.000E+00  4.70538E+01  2.243E-01  2.000E+01  2.000E+04 -1.558E+00
   1   16    5     1     5    2.2325E+05 -3.3379E+04   2.5663E+05  0.000E+00  0.000E+00  0.000E+00  4.65968E+01  2.446E-01  2.000E+01  2.000E+04 -1.669E+00
   1   16    6     1     6    2.5663E+05 -2.8922E+04   2.8555E+05  0.000E+00  0.000E+00  0.000E+00  4.61381E+01  2.631E-01  2.000E+01  2.000E+04 -1.446E+00
   1   16    7     1     7    2.8555E+05 -2.8636E+04   3.1419E+05  0.000E+00  0.000E+00  0.000E+00  4.56773E+01  2.796E-01  2.000E+01  2.000E+04 -1.432E+00
   1   16    8     1     8    3.1419E+05 -2.8776E+04   3.4296E+05  0.000E+00  0.000E+00  0.000E+00  4.52158E+01  2.953E-01  2.000E+01  2.000E+04 -1.439E+00
   1   16    9     1     9    3.4296E+05 -2.8871E+04   3.7183E+05  0.000E+00  0.000E+00  0.000E+00  4.47538E+01  3.106E-01  2.000E+01  2.000E+04 -1.444E+00
   1   16   10     1    10    3.7183E+05 -2.8977E+04   4.0081E+05  0.000E+00  0.000E+00  0.000E+00  4.42914E+01  3.255E-01  2.000E+01  2.000E+04 -1.449E+00
   1   16   11     1    11    4.0081E+05 -2.9740E+04   4.3055E+05  0.000E+00  0.000E+00  0.000E+00  4.38287E+01  3.401E-01  2.000E+01  2.000E+04 -1.487E+00
   1   16   12     1    12    4.3055E+05 -3.5541E+04   4.6609E+05  0.000E+00  0.000E+00  0.000E+00  4.33672E+01  3.559E-01  2.000E+01  2.000E+04 -1.777E+00
   1   15   13     1    13    4.6609E+05 -3.3645E+04   4.9973E+05  0.000E+00  0.000E+00  0.000E+00  4.29062E+01  3.721E-01  2.000E+01  2.000E+04 -1.682E+00
   1   14   14     1    14    4.9973E+05 -3.3784E+04   5.3352E+05  0.000E+00  0.000E+00  0.000E+00  4.24443E+01  3.875E-01  2.000E+01  2.000E+04 -1.689E+00
   1   13   15     1    15    5.3352E+05 -3.5641E+04   5.6916E+05  0.000E+00  0.000E+00  0.000E+00  4.19824E+01  4.029E-01  2.000E+01  2.000E+04 -1.782E+00
   1   12   16     1    16    5.6916E+05 -4.1322E+04   6.1048E+05  0.000E+00  0.000E+00  0.000E+00  4.15218E+01  4.195E-01  2.000E+01  2.000E+04 -2.066E+00
   1   12   17     1    17    6.1048E+05 -3.2933E+04   6.4341E+05  0.000E+00  0.000E+00  0.000E+00  4.10602E+01  4.352E-01  2.000E+01  2.000E+04 -1.647E+00
   1   12   18     1    18    6.4341E+05 -3.1751E+04   6.7517E+05  0.000E+00  0.000E+00  0.000E+00  4.05962E+01  4.485E-01  2.000E+01  2.000E+04 -1.588E+00
   1   12   19     1    19    6.7517E+05 -3.6041E+04   7.1121E+05  0.000E+00  0.000E+00  0.000E+00  4.01327E+01  4.622E-01  2.000E+01  2.000E+04 -1.802E+00
   1   13   20     1    20    7.1121E+05 -2.6869E+04   7.3807E+05  0.000E+00  0.000E+00  0.000E+00  3.96679E+01  4.747E-01  2.000E+01  2.000E+04 -1.343E+00
   1   14   21     1    21    7.3807E+05 -2.0016E+04   7.5809E+05  0.000E+00  0.000E+00  0.000E+00  3.91997E+01  4.838E-01  2.000E+01  2.000E+04 -1.001E+00
   1   14   22     1    22    7.5809E+05 -1.9284E+03   7.6002E+05  0.000E+00  0.000E+00  0.000E+00  3.87267E+01  4.881E-01  2.000E+01  2.000E+04 -9.642E-02
   1    9   30     2     1    5.0000E+04 -2.6870E+04   7.6870E+04  0.000E+00  0.000E+00  0.000E+00  4.02587E+01  1.337E-01  2.000E+01  2.000E+04 -1.343E+00
   1    9   29     2     2    7.6870E+04 -2.9325E+04   1.0619E+05  0.000E+00  0.000E+00  0.000E+00  4.00415E+01  1.665E-01  2.000E+01  2.000E+04 -1.466E+00
   1    9   28     2     3    1.0619E+05 -3.3594E+04   1.3979E+05  0.000E+00  0.000E+00  0.000E+00  3.98238E+01  1.988E-01  2.000E+01  2.000E+04 -1.680E+00
   1    9   27     2     4    1.3979E+05 -4.7703E+04   1.8749E+05  0.000E+00  0.000E+00  0.000E+00  3.96110E+01  2.360E-01  2.000E+01  2.000E+04 -2.385E+00
   1   10   26     2     5    1.8749E+05 -3.3661E+04   2.2115E+05  0.000E+00  0.000E+00  0.000E+00  3.93946E+01  2.696E-01  2.000E+01  2.000E+04 -1.683E+00
   1   11   25     2     6    2.2115E+05 -2.5272E+04   2.4642E+05  0.000E+00  0.000E+00  0.000E+00  3.91673E+01  2.923E-01  2.000E+01  2.000E+04 -1.264E+00
   1   12   24     2     7    2.4642E+05 -1.8660E+04   2.6508E+05  0.000E+00  0.000E+00  0.000E+00  3.89335E+01  3.085E-01  2.000E+01  2.000E+04 -9.330E-01
   1   13   23     2     8    2.6508E+05 -1.3282E+04   2.7837E+05  0.000E+00  0.000E+00  0.000E+00  3.86949E+01  3.199E-01  2.000E+01  2.000E+04 -6.641E-01
   1   14   22     2     9    2.7837E+05 -7.4190E+03   2.8579E+05  0.000E+00  0.000E+00  0.000E+00  3.84522E+01  3.272E-01  2.000E+01  2.000E+04 -3.709E-01
   1   14   22     3     1    1.0458E+06 -1.5490E+04   1.0613E+06  0.000E+00  0.000E+00  0.000E+00  3.80486E+01  4.931E-01  2.000E+01  2.000E+04 -7.745E-01
   1   15   23     3     2    1.0613E+06 -2.4091E+04   1.0854E+06  0.000E+00  0.000E+00  0.000E+00  3.71653E+01  4.986E-01  2.000E+01  2.000E+04 -1.205E+00
   1   15   24     3     3    1.0854E+06 -2.0060E+04   1.1054E+06  0.000E+00  0.000E+00  0.000E+00  3.62825E+01  5.047E-01  2.000E+01  2.000E+04 -1.003E+00
   1   15   25     3     4    1.1054E+06 -1.9655E+04   1.1251E+06  0.000E+00  0.000E+00  0.000E+00  3.53991E+01  5.102E-01  2.000E+01  2.000E+04 -9.828E-01
   1   15   26     3     5    1.1251E+06 -2.2463E+04   1.1476E+06  0.000E+00  0.000E+00  0.000E+00  3.45159E+01  5.159E-01  2.000E+01  2.000E+04 -1.123E+00
   1   16   27     3     6    1.1476E+06 -2.9724E+04   1.1773E+06  0.000E+00  0.000E+00  0.000E+00  3.36341E+01  5.230E-01  2.000E+01  2.000E+04 -1.486E+00
   1   17   28     3     7    1.1773E+06 -3.6800E+04   1.2141E+06  0.000E+00  0.000E+00  0.000E+00  3.27542E+01  5.320E-01  2.000E+01  2.000E+04 -1.840E+00
   1   18   29     3     8    1.2141E+06 -4.7769E+04   1.2619E+06  0.000E+00  0.000E+00  0.000E+00  3.18765E+01  5.432E-01  2.000E+01  2.000E+04 -2.388E+00
   1   18   30     3     9    1.2619E+06 -4.4114E+04   1.3060E+06  0.000E+00  0.000E+00  0.000E+00  3.09996E+01  5.552E-01  2.000E+01  2.000E+04 -2.206E+00



1
              HEAD IN LAYER   1 AT END OF TIME STEP   1 IN STRESS PERIOD    6
  ---------------------------------------------------------------------------

          1      2      3      4      5      6      7      8      9     10
         11     12     13     14     15     16     17     18     19     20
         21     22     23     24     25     26     27     28     29     30
 .........................................................................
   1  ****** ****** ****** ****** ****** ****** ****** ****** ****** ******
      ****** ****** ****** ****** ****** ****** ****** ****** ****** ******
      ****** ****** ****** ****** ****** ****** ****** ****** ****** ******
   2  ****** ****** ****** ****** ****** ****** ****** ****** ****** ******
      ****** ****** ****** ****** ****** ****** ****** ****** ****** ******
      ****** ****** ****** ****** ****** ****** ****** ****** ****** ******
   3  ****** ****** ****** ****** ****** ****** ****** ****** ****** ******
      ****** ****** ****** ****** ****** ****** ****** ****** ****** ******
      ****** ****** ****** ****** ****** ****** ****** ****** ****** ******
   4  ****** ****** ****** ****** ****** ****** ****** ****** ****** ******
      ****** ****** ****** ****** ****** ****** ****** ****** ****** ******
      ****** ****** ****** ****** ****** ****** ****** ****** ****** ******
   5  ****** ****** ****** ****** ****** ****** ****** ****** ****** ******
      ****** ****** ****** ****** ****** ****** ****** ****** ****** ******
      ****** ****** ****** ****** ****** ****** ****** ****** ****** ******
   6  ****** ****** ****** ****** ****** ****** ****** ****** ****** ******
      ****** ****** ****** ****** ****** ****** ****** ****** ****** ******
      ****** ****** ****** ****** ****** ****** ****** ****** ****** ******
   7  ****** ****** ****** ****** ****** ****** ****** ****** ****** ******
      ****** ****** ****** ****** ****** ****** ****** ****** ****** ******
      ****** ****** ****** ****** ****** ****** ****** ****** ****** ******
   8  ****** ****** ****** ****** ****** ****** ****** ****** ****** ******
      ****** ****** ****** ****** ****** ****** ****** ****** ****** ******
      ****** ****** ****** ****** ****** ****** ****** ****** ****** ******
   9  ****** ****** ****** ****** ****** ****** ****** ****** ****** ******
      ****** ****** ****** ****** ****** ****** ****** ****** ****** ******
      ****** ****** ****** ****** ****** ****** ****** ****** ****** ******
  10  ****** ****** ****** ****** ****** ****** ****** ****** ****** ******
      ****** ****** ****** ****** ****** ****** ****** ****** ****** ******
      ****** ****** ****** ****** ****** ****** ****** ****** ****** ******
  11  ****** ****** ****** ****** ****** ****** ****** ****** ****** ******
      ****** ****** ****** ****** ****** ****** ****** ****** ****** ******
      ****** ****** ****** ****** ****** ****** ****** ****** ****** ******
  12  ****** ****** ****** ****** ****** ****** ****** ****** ****** ******
      ****** ****** ****** ****** ****** ****** ****** ****** ****** ******
      ****** ****** ****** ****** ****** ****** ****** ****** ****** ******
  13  ****** ****** ****** ****** ****** ****** ****** ****** ****** ******
      ****** ****** ****** ****** ****** ****** ****** ****** ****** ******
      ****** ****** ****** ****** ****** ****** ****** ****** ****** ******
  14  ****** ****** ****** ****** ****** ****** ****** ****** ****** ******
      ****** ****** ****** ****** ****** ****** ****** ****** ****** ******
      ****** ****** ****** ****** ****** ****** ****** ****** ****** ******
  15  ****** ****** ****** ****** ****** ****** ****** ****** ****** ******
      ****** ****** ****** ****** ****** ****** ****** ****** ****** ******
      ****** ****** ****** ****** ****** ****** ****** ****** ****** ******
  16  ****** ****** ****** ****** ****** ****** ****** ****** ****** ******
      ****** ****** ****** ****** ****** ****** ****** ****** ****** ******
      ****** ****** ****** ****** ****** ****** ****** ****** ****** ******
  17  ****** ****** ****** ****** ****** ****** ****** ****** ****** ******
      ****** ****** ****** ****** ****** ****** ****** ****** ****** ******
      ****** ****** ****** ****** ****** ****** ****** ****** ****** ******
  18  ****** ****** ****** ****** ****** ****** ****** ****** ****** ******
      ****** ****** ****** ****** ****** ****** ****** ****** ****** ******
      ****** ****** ****** ****** ****** ****** ****** ****** ****** ******
  19  ****** ****** ****** ****** ****** ****** ****** ****** ****** ******
      ****** ****** ****** ****** ****** ****** ****** ****** ****** ******
      ****** ****** ****** ****** ****** ****** ****** ****** ****** ******
  20  ****** ****** ****** ****** ****** ****** ****** ****** ****** ******
      ****** ****** ****** ****** ****** ****** ****** ****** ****** ******
      ****** ****** ****** ****** ****** ****** ****** ****** ****** ******
  21  ****** ****** ****** ****** ****** ****** ****** ****** ****** ******
      ****** ****** ****** ****** ****** ****** ****** ****** ****** ******
      ****** ****** ****** ****** ****** ****** ****** ****** ****** ******
  22  ****** ****** ****** ****** ****** ****** ****** ****** ****** ******
      ****** ****** ****** ****** ****** ****** ****** ****** ****** ******
      ****** ****** ****** ****** ****** ****** ****** ****** ****** ******
  23  ****** ****** ****** ****** ****** ****** ****** ****** ****** ******
      ****** ****** ****** ****** ****** ****** ****** ****** ****** ******
      ****** ****** ****** ****** ****** ****** ****** ****** ****** ******
  24  ****** ****** ****** ****** ****** ****** ****** ****** ****** ******
      ****** ****** ****** ****** ****** ****** ****** ****** ****** ******
      ****** ****** ****** ****** ****** ****** ****** ****** ****** ******
  25  ****** ****** ****** ****** ****** ****** ****** ****** ****** ******
      ****** ****** ****** ****** ****** ****** ****** ****** ****** ******
      ****** ****** ****** ****** ****** ****** ****** ****** ****** ******

 HEAD WILL BE SAVED ON UNIT   51 AT END OF TIME STEP    1, STRESS PERIOD    6
1
  VOLUMETRIC BUDGET FOR ENTIRE MODEL AT END OF TIME STEP    1, STRESS PERIOD   6
  ------------------------------------------------------------------------------

     CUMULATIVE VOLUMES      L**3       RATES FOR THIS TIME STEP      L**3/T
     ------------------                 ------------------------

           IN:                                      IN:
           ---                                      ---
             STORAGE =    20733261.9680               STORAGE =           0.0000
       CONSTANT HEAD =   687767522.2376         CONSTANT HEAD =     1255210.5960
               WELLS =           0.0000                 WELLS =           0.0000
            RECHARGE =    15097200.0000              RECHARGE =       55200.0000
      STREAM LEAKAGE =           0.0000        STREAM LEAKAGE =           0.0000

            TOTAL IN =   723597984.2056              TOTAL IN =     1310410.5960

          OUT:                                     OUT:
          ----                                     ----
             STORAGE =      279458.6181               STORAGE =        1938.1316
       CONSTANT HEAD =           0.0000         CONSTANT HEAD =           0.0000
               WELLS =    83570411.0000                 WELLS =      152500.7500
            RECHARGE =           0.0000              RECHARGE =           0.0000
      STREAM LEAKAGE =   639748119.2469        STREAM LEAKAGE =     1155971.6799

           TOTAL OUT =   723597988.8650             TOTAL OUT =     1310410.5615

            IN - OUT =          -4.6595              IN - OUT =       3.4498E-02

 PERCENT DISCREPANCY =          -0.00     PERCENT DISCREPANCY =           0.00






         TIME SUMMARY AT END OF TIME STEP    1 IN STRESS PERIOD    6
                    SECONDS     MINUTES      HOURS       DAYS        YEARS
                    -----------------------------------------------------------
   TIME STEP LENGTH 7.86240E+06 1.31040E+05  2184.0      91.000     0.24914    
 STRESS PERIOD TIME 7.86240E+06 1.31040E+05  2184.0      91.000     0.24914    
         TOTAL TIME 4.73472E+07 7.89120E+05  13152.      548.00      1.5003    
1
1
                            STRESS PERIOD NO.    7, LENGTH =   91.00000    
                            -----------------------------------------------

                              NUMBER OF TIME STEPS =     1

                               MULTIPLIER FOR DELT =     1.500

                            INITIAL TIME STEP SIZE =   91.00000    

 WELL NO.  LAYER   ROW   COL   STRESS RATE         
 --------------------------------------------------
      1      1      4      5     -0.5000E+05
      2      1      2     11     -0.5000E+05
      3      1      6     11     -0.1663E+05

      3 WELLS

                 RECHARGE =   0.00000    

 REUSING STREAM SEGMENT DATA FROM LAST STRESS PERIOD
 
 SOLVING FOR HEAD 


     6 CALLS TO PCG ROUTINE FOR TIME STEP   1 IN STRESS PERIOD    7
    22 TOTAL ITERATIONS

 OUTPUT CONTROL FOR STRESS PERIOD    7   TIME STEP    1
    SAVE BUDGET
    SAVE HEAD FOR ALL LAYERS
    PRINT HEAD FOR ALL LAYERS
 UBDSV2 SAVING "STREAMFLOW OUT  " ON UNIT  50 AT TIME STEP  1, STRESS PERIOD   7



 STREAM LISTING     PERIOD      7   STEP        1

 LAYER ROW COL. STREAM  RCH.  FLOW INTO     FLOW TO   FLOW OUT OF   OVRLND.     DIRECT     STREAM       STREAM     STREAM     STREAM   STREAMBED  STREAMBED
                SEG.NO.  NO.  STRM. RCH.    AQUIFER    STRM. RCH.    RUNOFF     PRECIP       ET          HEAD       DEPTH      WIDTH   CONDCTNC.   GRADIENT

   1   13    1     1     1    1.0000E+05 -2.5524E+04   1.2552E+05  0.000E+00  0.000E+00  0.000E+00  4.84168E+01  1.555E-01  2.000E+01  2.000E+04 -1.276E+00
   1   13    2     1     2    1.2552E+05 -3.4640E+04   1.6016E+05  0.000E+00  0.000E+00  0.000E+00  4.79633E+01  1.792E-01  2.000E+01  2.000E+04 -1.732E+00
   1   14    3     1     3    1.6016E+05 -3.0902E+04   1.9107E+05  0.000E+00  0.000E+00  0.000E+00  4.75096E+01  2.028E-01  2.000E+01  2.000E+04 -1.545E+00
   1   15    4     1     4    1.9107E+05 -3.0678E+04   2.2175E+05  0.000E+00  0.000E+00  0.000E+00  4.70530E+01  2.234E-01  2.000E+01  2.000E+04 -1.534E+00
   1   16    5     1     5    2.2175E+05 -3.2796E+04   2.5454E+05  0.000E+00  0.000E+00  0.000E+00  4.65957E+01  2.435E-01  2.000E+01  2.000E+04 -1.640E+00
   1   16    6     1     6    2.5454E+05 -2.8508E+04   2.8305E+05  0.000E+00  0.000E+00  0.000E+00  4.61368E+01  2.618E-01  2.000E+01  2.000E+04 -1.425E+00
   1   16    7     1     7    2.8305E+05 -2.8285E+04   3.1133E+05  0.000E+00  0.000E+00  0.000E+00  4.56758E+01  2.781E-01  2.000E+01  2.000E+04 -1.414E+00
   1   16    8     1     8    3.1133E+05 -2.8464E+04   3.3980E+05  0.000E+00  0.000E+00  0.000E+00  4.52142E+01  2.937E-01  2.000E+01  2.000E+04 -1.423E+00
   1   16    9     1     9    3.3980E+05 -2.8582E+04   3.6838E+05  0.000E+00  0.000E+00  0.000E+00  4.47521E+01  3.089E-01  2.000E+01  2.000E+04 -1.429E+00
   1   16   10     1    10    3.6838E+05 -2.8688E+04   3.9707E+05  0.000E+00  0.000E+00  0.000E+00  4.42895E+01  3.236E-01  2.000E+01  2.000E+04 -1.434E+00
   1   16   11     1    11    3.9707E+05 -2.9409E+04   4.2648E+05  0.000E+00  0.000E+00  0.000E+00  4.38268E+01  3.382E-01  2.000E+01  2.000E+04 -1.470E+00
   1   16   12     1    12    4.2648E+05 -3.5037E+04   4.6151E+05  0.000E+00  0.000E+00  0.000E+00  4.33652E+01  3.538E-01  2.000E+01  2.000E+04 -1.752E+00
   1   15   13     1    13    4.6151E+05 -3.3348E+04   4.9486E+05  0.000E+00  0.000E+00  0.000E+00  4.29040E+01  3.699E-01  2.000E+01  2.000E+04 -1.667E+00
   1   14   14     1    14    4.9486E+05 -3.3678E+04   5.2854E+05  0.000E+00  0.000E+00  0.000E+00  4.24421E+01  3.852E-01  2.000E+01  2.000E+04 -1.684E+00
   1   13   15     1    15    5.2854E+05 -3.5725E+04   5.6426E+05  0.000E+00  0.000E+00  0.000E+00  4.19803E+01  4.007E-01  2.000E+01  2.000E+04 -1.786E+00
   1   12   16     1    16    5.6426E+05 -4.1608E+04   6.0587E+05  0.000E+00  0.000E+00  0.000E+00  4.15198E+01  4.175E-01  2.000E+01  2.000E+04 -2.080E+00
   1   12   17     1    17    6.0587E+05 -3.2877E+04   6.3875E+05  0.000E+00  0.000E+00  0.000E+00  4.10582E+01  4.332E-01  2.000E+01  2.000E+04 -1.644E+00
   1   12   18     1    18    6.3875E+05 -3.1525E+04   6.7027E+05  0.000E+00  0.000E+00  0.000E+00  4.05943E+01  4.466E-01  2.000E+01  2.000E+04 -1.576E+00
   1   12   19     1    19    6.7027E+05 -3.5671E+04   7.0595E+05  0.000E+00  0.000E+00  0.000E+00  4.01306E+01  4.602E-01  2.000E+01  2.000E+04 -1.784E+00
   1   13   20     1    20    7.0595E+05 -2.6312E+04   7.3226E+05  0.000E+00  0.000E+00  0.000E+00  3.96657E+01  4.725E-01  2.000E+01  2.000E+04 -1.316E+00
   1   14   21     1    21    7.3226E+05 -1.9440E+04   7.5170E+05  0.000E+00  0.000E+00  0.000E+00  3.91974E+01  4.815E-01  2.000E+01  2.000E+04 -9.720E-01
   1   14   22     1    22    7.5170E+05 -1.6970E+03   7.5340E+05  0.000E+00  0.000E+00  0.000E+00  3.87242E+01  4.856E-01  2.000E+01  2.000E+04 -8.485E-02
   1    9   30     2     1    5.0000E+04 -2.6312E+04   7.6312E+04  0.000E+00  0.000E+00  0.000E+00  4.02583E+01  1.333E-01  2.000E+01  2.000E+04 -1.316E+00
   1    9   29     2     2    7.6312E+04 -2.8773E+04   1.0509E+05  0.000E+00  0.000E+00  0.000E+00  4.00406E+01  1.656E-01  2.000E+01  2.000E+04 -1.439E+00
   1    9   28     2     3    1.0509E+05 -3.3037E+04   1.3812E+05  0.000E+00  0.000E+00  0.000E+00  3.98225E+01  1.975E-01  2.000E+01  2.000E+04 -1.652E+00
   1    9   27     2     4    1.3812E+05 -4.7058E+04   1.8518E+05  0.000E+00  0.000E+00  0.000E+00  3.96093E+01  2.343E-01  2.000E+01  2.000E+04 -2.353E+00
   1   10   26     2     5    1.8518E+05 -3.3006E+04   2.1819E+05  0.000E+00  0.000E+00  0.000E+00  3.93925E+01  2.675E-01  2.000E+01  2.000E+04 -1.650E+00
   1   11   25     2     6    2.1819E+05 -2.4659E+04   2.4284E+05  0.000E+00  0.000E+00  0.000E+00  3.91649E+01  2.899E-01  2.000E+01  2.000E+04 -1.233E+00
   1   12   24     2     7    2.4284E+05 -1.8126E+04   2.6097E+05  0.000E+00  0.000E+00  0.000E+00  3.89307E+01  3.057E-01  2.000E+01  2.000E+04 -9.063E-01
   1   13   23     2     8    2.6097E+05 -1.2854E+04   2.7383E+05  0.000E+00  0.000E+00  0.000E+00  3.86919E+01  3.169E-01  2.000E+01  2.000E+04 -6.427E-01
   1   14   22     2     9    2.7383E+05 -7.2023E+03   2.8103E+05  0.000E+00  0.000E+00  0.000E+00  3.84489E+01  3.239E-01  2.000E+01  2.000E+04 -3.601E-01
   1   14   22     3     1    1.0344E+06 -1.5274E+04   1.0497E+06  0.000E+00  0.000E+00  0.000E+00  3.80454E+01  4.898E-01  2.000E+01  2.000E+04 -7.637E-01
   1   15   23     3     2    1.0497E+06 -2.3503E+04   1.0732E+06  0.000E+00  0.000E+00  0.000E+00  3.71619E+01  4.953E-01  2.000E+01  2.000E+04 -1.175E+00
   1   15   24     3     3    1.0732E+06 -1.9568E+04   1.0928E+06  0.000E+00  0.000E+00  0.000E+00  3.62790E+01  5.013E-01  2.000E+01  2.000E+04 -9.784E-01
   1   15   25     3     4    1.0928E+06 -1.9163E+04   1.1119E+06  0.000E+00  0.000E+00  0.000E+00  3.53955E+01  5.066E-01  2.000E+01  2.000E+04 -9.581E-01
   1   15   26     3     5    1.1119E+06 -2.1887E+04   1.1338E+06  0.000E+00  0.000E+00  0.000E+00  3.45123E+01  5.123E-01  2.000E+01  2.000E+04 -1.094E+00
   1   16   27     3     6    1.1338E+06 -2.9026E+04   1.1628E+06  0.000E+00  0.000E+00  0.000E+00  3.36303E+01  5.192E-01  2.000E+01  2.000E+04 -1.451E+00
   1   17   28     3     7    1.1628E+06 -3.6083E+04   1.1989E+06  0.000E+00  0.000E+00  0.000E+00  3.27502E+01  5.280E-01  2.000E+01  2.000E+04 -1.804E+00
   1   18   29     3     8    1.1989E+06 -4.7094E+04   1.2460E+06  0.000E+00  0.000E+00  0.000E+00  3.18724E+01  5.391E-01  2.000E+01  2.000E+04 -2.355E+00
   1   18   30     3     9    1.2460E+06 -4.3551E+04   1.2896E+06  0.000E+00  0.000E+00  0.000E+00  3.09954E+01  5.510E-01  2.000E+01  2.000E+04 -2.178E+00



1
              HEAD IN LAYER   1 AT END OF TIME STEP   1 IN STRESS PERIOD    7
  ---------------------------------------------------------------------------

          1      2      3      4      5      6      7      8      9     10
         11     12     13     14     15     16     17     18     19     20
         21     22     23     24     25     26     27     28     29     30
 .........................................................................
   1  ****** ****** ****** ****** ****** ****** ****** ****** ****** ******
      ****** ****** ****** ****** ****** ****** ****** ****** ****** ******
      ****** ****** ****** ****** ****** ****** ****** ****** ****** ******
   2  ****** ****** ****** ****** ****** ****** ****** ****** ****** ******
      ****** ****** ****** ****** ****** ****** ****** ****** ****** ******
      ****** ****** ****** ****** ****** ****** ****** ****** ****** ******
   3  ****** ****** ****** ****** ****** ****** ****** ****** ****** ******
      ****** ****** ****** ****** ****** ****** ****** ****** ****** ******
      ****** ****** ****** ****** ****** ****** ****** ****** ****** ******
   4  ****** ****** ****** ****** ****** ****** ****** ****** ****** ******
      ****** ****** ****** ****** ****** ****** ****** ****** ****** ******
      ****** ****** ****** ****** ****** ****** ****** ****** ****** ******
   5  ****** ****** ****** ****** ****** ****** ****** ****** ****** ******
      ****** ****** ****** ****** ****** ****** ****** ****** ****** ******
      ****** ****** ****** ****** ****** ****** ****** ****** ****** ******
   6  ****** ****** ****** ****** ****** ****** ****** ****** ****** ******
      ****** ****** ****** ****** ****** ****** ****** ****** ****** ******
      ****** ****** ****** ****** ****** ****** ****** ****** ****** ******
   7  ****** ****** ****** ****** ****** ****** ****** ****** ****** ******
      ****** ****** ****** ****** ****** ****** ****** ****** ****** ******
      ****** ****** ****** ****** ****** ****** ****** ****** ****** ******
   8  ****** ****** ****** ****** ****** ****** ****** ****** ****** ******
      ****** ****** ****** ****** ****** ****** ****** ****** ****** ******
      ****** ****** ****** ****** ****** ****** ****** ****** ****** ******
   9  ****** ****** ****** ****** ****** ****** ****** ****** ****** ******
      ****** ****** ****** ****** ****** ****** ****** ****** ****** ******
      ****** ****** ****** ****** ****** ****** ****** ****** ****** ******
  10  ****** ****** ****** ****** ****** ****** ****** ****** ****** ******
      ****** ****** ****** ****** ****** ****** ****** ****** ****** ******
      ****** ****** ****** ****** ****** ****** ****** ****** ****** ******
  11  ****** ****** ****** ****** ****** ****** ****** ****** ****** ******
      ****** ****** ****** ****** ****** ****** ****** ****** ****** ******
      ****** ****** ****** ****** ****** ****** ****** ****** ****** ******
  12  ****** ****** ****** ****** ****** ****** ****** ****** ****** ******
      ****** ****** ****** ****** ****** ****** ****** ****** ****** ******
      ****** ****** ****** ****** ****** ****** ****** ****** ****** ******
  13  ****** ****** ****** ****** ****** ****** ****** ****** ****** ******
      ****** ****** ****** ****** ****** ****** ****** ****** ****** ******
      ****** ****** ****** ****** ****** ****** ****** ****** ****** ******
  14  ****** ****** ****** ****** ****** ****** ****** ****** ****** ******
      ****** ****** ****** ****** ****** ****** ****** ****** ****** ******
      ****** ****** ****** ****** ****** ****** ****** ****** ****** ******
  15  ****** ****** ****** ****** ****** ****** ****** ****** ****** ******
      ****** ****** ****** ****** ****** ****** ****** ****** ****** ******
      ****** ****** ****** ****** ****** ****** ****** ****** ****** ******
  16  ****** ****** ****** ****** ****** ****** ****** ****** ****** ******
      ****** ****** ****** ****** ****** ****** ****** ****** ****** ******
      ****** ****** ****** ****** ****** ****** ****** ****** ****** ******
  17  ****** ****** ****** ****** ****** ****** ****** ****** ****** ******
      ****** ****** ****** ****** ****** ****** ****** ****** ****** ******
      ****** ****** ****** ****** ****** ****** ****** ****** ****** ******
  18  ****** ****** ****** ****** ****** ****** ****** ****** ****** ******
      ****** ****** ****** ****** ****** ****** ****** ****** ****** ******
      ****** ****** ****** ****** ****** ****** ****** ****** ****** ******
  19  ****** ****** ****** ****** ****** ****** ****** ****** ****** ******
      ****** ****** ****** ****** ****** ****** ****** ****** ****** ******
      ****** ****** ****** ****** ****** ****** ****** ****** ****** ******
  20  ****** ****** ****** ****** ****** ****** ****** ****** ****** ******
      ****** ****** ****** ****** ****** ****** ****** ****** ****** ******
      ****** ****** ****** ****** ****** ****** ****** ****** ****** ******
  21  ****** ****** ****** ****** ****** ****** ****** ****** ****** ******
      ****** ****** ****** ****** ****** ****** ****** ****** ****** ******
      ****** ****** ****** ****** ****** ****** ****** ****** ****** ******
  22  ****** ****** ****** ****** ****** ****** ****** ****** ****** ******
      ****** ****** ****** ****** ****** ****** ****** ****** ****** ******
      ****** ****** ****** ****** ****** ****** ****** ****** ****** ******
  23  ****** ****** ****** ****** ****** ****** ****** ****** ****** ******
      ****** ****** ****** ****** ****** ****** ****** ****** ****** ******
      ****** ****** ****** ****** ****** ****** ****** ****** ****** ******
  24  ****** ****** ****** ****** ****** ****** ****** ****** ****** ******
      ****** ****** ****** ****** ****** ****** ****** ****** ****** ******
      ****** ****** ****** ****** ****** ****** ****** ****** ****** ******
  25  ****** ****** ****** ****** ****** ****** ****** ****** ****** ******
      ****** ****** ****** ****** ****** ****** ****** ****** ****** ******
      ****** ****** ****** ****** ****** ****** ****** ****** ****** ******

 HEAD WILL BE SAVED ON UNIT   51 AT END OF TIME STEP    1, STRESS PERIOD    7
1
  VOLUMETRIC BUDGET FOR ENTIRE MODEL AT END OF TIME STEP    1, STRESS PERIOD   7
  ------------------------------------------------------------------------------

     CUMULATIVE VOLUMES      L**3       RATES FOR THIS TIME STEP      L**3/T
     ------------------                 ------------------------

           IN:                                      IN:
           ---                                      ---
             STORAGE =    20838515.1120               STORAGE =        1156.6280
       CONSTANT HEAD =   802133387.8626         CONSTANT HEAD =     1256767.7541
               WELLS =           0.0000                 WELLS =           0.0000
            RECHARGE =    15097200.0000              RECHARGE =           0.0000
      STREAM LEAKAGE =           0.0000        STREAM LEAKAGE =           0.0000

            TOTAL IN =   838069102.9746              TOTAL IN =     1257924.3821

          OUT:                                     OUT:
          ----                                     ----
             STORAGE =      435804.9110               STORAGE =        1718.0911
       CONSTANT HEAD =           0.0000         CONSTANT HEAD =           0.0000
               WELLS =    94184166.0277                 WELLS =      116634.6706
            RECHARGE =           0.0000              RECHARGE =           0.0000
      STREAM LEAKAGE =   743449137.7402        STREAM LEAKAGE =     1139571.6318

           TOTAL OUT =   838069108.6789             TOTAL OUT =     1257924.3936

            IN - OUT =          -5.7043              IN - OUT =      -1.1482E-02

 PERCENT DISCREPANCY =          -0.00     PERCENT DISCREPANCY =          -0.00






         TIME SUMMARY AT END OF TIME STEP    1 IN STRESS PERIOD    7
                    SECONDS     MINUTES      HOURS       DAYS        YEARS
                    -----------------------------------------------------------
   TIME STEP LENGTH 7.86240E+06 1.31040E+05  2184.0      91.000     0.24914    
 STRESS PERIOD TIME 7.86240E+06 1.31040E+05  2184.0      91.000     0.24914    
         TOTAL TIME 5.52096E+07 9.20160E+05  15336.      639.00      1.7495    
1
1
                            STRESS PERIOD NO.    8, LENGTH =   91.00000    
                            -----------------------------------------------

                              NUMBER OF TIME STEPS =     1

                               MULTIPLIER FOR DELT =     1.500

                            INITIAL TIME STEP SIZE =   91.00000    

 WELL NO.  LAYER   ROW   COL   STRESS RATE         
 --------------------------------------------------
      1      1      4      5     -0.5000E+05
      2      1      2     11     -0.5000E+05
      3      1      6     11     -0.1663E+05

      3 WELLS

                 RECHARGE =  1.000000E-03

 REUSING STREAM SEGMENT DATA FROM LAST STRESS PERIOD
 
 SOLVING FOR HEAD 


     6 CALLS TO PCG ROUTINE FOR TIME STEP   1 IN STRESS PERIOD    8
    22 TOTAL ITERATIONS

 OUTPUT CONTROL FOR STRESS PERIOD    8   TIME STEP    1
    SAVE BUDGET
    SAVE HEAD FOR ALL LAYERS
    PRINT HEAD FOR ALL LAYERS
 UBDSV2 SAVING "STREAMFLOW OUT  " ON UNIT  50 AT TIME STEP  1, STRESS PERIOD   8



 STREAM LISTING     PERIOD      8   STEP        1

 LAYER ROW COL. STREAM  RCH.  FLOW INTO     FLOW TO   FLOW OUT OF   OVRLND.     DIRECT     STREAM       STREAM     STREAM     STREAM   STREAMBED  STREAMBED
                SEG.NO.  NO.  STRM. RCH.    AQUIFER    STRM. RCH.    RUNOFF     PRECIP       ET          HEAD       DEPTH      WIDTH   CONDCTNC.   GRADIENT

   1   13    1     1     1    1.0000E+05 -2.5988E+04   1.2599E+05  0.000E+00  0.000E+00  0.000E+00  4.84170E+01  1.557E-01  2.000E+01  2.000E+04 -1.299E+00
   1   13    2     1     2    1.2599E+05 -3.5203E+04   1.6119E+05  0.000E+00  0.000E+00  0.000E+00  4.79638E+01  1.797E-01  2.000E+01  2.000E+04 -1.760E+00
   1   14    3     1     3    1.6119E+05 -3.1439E+04   1.9263E+05  0.000E+00  0.000E+00  0.000E+00  4.75105E+01  2.037E-01  2.000E+01  2.000E+04 -1.572E+00
   1   15    4     1     4    1.9263E+05 -3.1183E+04   2.2381E+05  0.000E+00  0.000E+00  0.000E+00  4.70542E+01  2.246E-01  2.000E+01  2.000E+04 -1.559E+00
   1   16    5     1     5    2.2381E+05 -3.3237E+04   2.5705E+05  0.000E+00  0.000E+00  0.000E+00  4.65971E+01  2.449E-01  2.000E+01  2.000E+04 -1.662E+00
   1   16    6     1     6    2.5705E+05 -2.8900E+04   2.8595E+05  0.000E+00  0.000E+00  0.000E+00  4.61384E+01  2.634E-01  2.000E+01  2.000E+04 -1.445E+00
   1   16    7     1     7    2.8595E+05 -2.8679E+04   3.1463E+05  0.000E+00  0.000E+00  0.000E+00  4.56775E+01  2.798E-01  2.000E+01  2.000E+04 -1.434E+00
   1   16    8     1     8    3.1463E+05 -2.8862E+04   3.4349E+05  0.000E+00  0.000E+00  0.000E+00  4.52160E+01  2.956E-01  2.000E+01  2.000E+04 -1.443E+00
   1   16    9     1     9    3.4349E+05 -2.8980E+04   3.7247E+05  0.000E+00  0.000E+00  0.000E+00  4.47541E+01  3.109E-01  2.000E+01  2.000E+04 -1.449E+00
   1   16   10     1    10    3.7247E+05 -2.9084E+04   4.0155E+05  0.000E+00  0.000E+00  0.000E+00  4.42917E+01  3.258E-01  2.000E+01  2.000E+04 -1.454E+00
   1   16   11     1    11    4.0155E+05 -2.9806E+04   4.3136E+05  0.000E+00  0.000E+00  0.000E+00  4.38291E+01  3.405E-01  2.000E+01  2.000E+04 -1.490E+00
   1   16   12     1    12    4.3136E+05 -3.5487E+04   4.6685E+05  0.000E+00  0.000E+00  0.000E+00  4.33676E+01  3.562E-01  2.000E+01  2.000E+04 -1.774E+00
   1   15   13     1    13    4.6685E+05 -3.3867E+04   5.0071E+05  0.000E+00  0.000E+00  0.000E+00  4.29066E+01  3.725E-01  2.000E+01  2.000E+04 -1.693E+00
   1   14   14     1    14    5.0071E+05 -3.4228E+04   5.3494E+05  0.000E+00  0.000E+00  0.000E+00  4.24448E+01  3.880E-01  2.000E+01  2.000E+04 -1.711E+00
   1   13   15     1    15    5.3494E+05 -3.6284E+04   5.7123E+05  0.000E+00  0.000E+00  0.000E+00  4.19832E+01  4.036E-01  2.000E+01  2.000E+04 -1.814E+00
   1   12   16     1    16    5.7123E+05 -4.2162E+04   6.1339E+05  0.000E+00  0.000E+00  0.000E+00  4.15229E+01  4.206E-01  2.000E+01  2.000E+04 -2.108E+00
   1   12   17     1    17    6.1339E+05 -3.3305E+04   6.4669E+05  0.000E+00  0.000E+00  0.000E+00  4.10615E+01  4.365E-01  2.000E+01  2.000E+04 -1.665E+00
   1   12   18     1    18    6.4669E+05 -3.1922E+04   6.7862E+05  0.000E+00  0.000E+00  0.000E+00  4.05976E+01  4.499E-01  2.000E+01  2.000E+04 -1.596E+00
   1   12   19     1    19    6.7862E+05 -3.6098E+04   7.1471E+05  0.000E+00  0.000E+00  0.000E+00  4.01340E+01  4.636E-01  2.000E+01  2.000E+04 -1.805E+00
   1   13   20     1    20    7.1471E+05 -2.6693E+04   7.4141E+05  0.000E+00  0.000E+00  0.000E+00  3.96692E+01  4.760E-01  2.000E+01  2.000E+04 -1.335E+00
   1   14   21     1    21    7.4141E+05 -1.9758E+04   7.6116E+05  0.000E+00  0.000E+00  0.000E+00  3.92010E+01  4.851E-01  2.000E+01  2.000E+04 -9.879E-01
   1   14   22     1    22    7.6116E+05 -1.8073E+03   7.6297E+05  0.000E+00  0.000E+00  0.000E+00  3.87279E+01  4.892E-01  2.000E+01  2.000E+04 -9.037E-02
   1    9   30     2     1    5.0000E+04 -2.6599E+04   7.6599E+04  0.000E+00  0.000E+00  0.000E+00  4.02585E+01  1.335E-01  2.000E+01  2.000E+04 -1.330E+00
   1    9   29     2     2    7.6599E+04 -2.9060E+04   1.0566E+05  0.000E+00  0.000E+00  0.000E+00  4.00411E+01  1.661E-01  2.000E+01  2.000E+04 -1.453E+00
   1    9   28     2     3    1.0566E+05 -3.3334E+04   1.3899E+05  0.000E+00  0.000E+00  0.000E+00  3.98232E+01  1.982E-01  2.000E+01  2.000E+04 -1.667E+00
   1    9   27     2     4    1.3899E+05 -4.7425E+04   1.8642E+05  0.000E+00  0.000E+00  0.000E+00  3.96102E+01  2.352E-01  2.000E+01  2.000E+04 -2.371E+00
   1   10   26     2     5    1.8642E+05 -3.3388E+04   2.1981E+05  0.000E+00  0.000E+00  0.000E+00  3.93937E+01  2.687E-01  2.000E+01  2.000E+04 -1.669E+00
   1   11   25     2     6    2.1981E+05 -2.5030E+04   2.4484E+05  0.000E+00  0.000E+00  0.000E+00  3.91662E+01  2.912E-01  2.000E+01  2.000E+04 -1.252E+00
   1   12   24     2     7    2.4484E+05 -1.8460E+04   2.6330E+05  0.000E+00  0.000E+00  0.000E+00  3.89323E+01  3.073E-01  2.000E+01  2.000E+04 -9.230E-01
   1   13   23     2     8    2.6330E+05 -1.3126E+04   2.7642E+05  0.000E+00  0.000E+00  0.000E+00  3.86936E+01  3.186E-01  2.000E+01  2.000E+04 -6.563E-01
   1   14   22     2     9    2.7642E+05 -7.3487E+03   2.8377E+05  0.000E+00  0.000E+00  0.000E+00  3.84508E+01  3.258E-01  2.000E+01  2.000E+04 -3.674E-01
   1   14   22     3     1    1.0467E+06 -1.5388E+04   1.0621E+06  0.000E+00  0.000E+00  0.000E+00  3.80489E+01  4.933E-01  2.000E+01  2.000E+04 -7.694E-01
   1   15   23     3     2    1.0621E+06 -2.3794E+04   1.0859E+06  0.000E+00  0.000E+00  0.000E+00  3.71654E+01  4.988E-01  2.000E+01  2.000E+04 -1.190E+00
   1   15   24     3     3    1.0859E+06 -1.9809E+04   1.1057E+06  0.000E+00  0.000E+00  0.000E+00  3.62826E+01  5.048E-01  2.000E+01  2.000E+04 -9.905E-01
   1   15   25     3     4    1.1057E+06 -1.9404E+04   1.1251E+06  0.000E+00  0.000E+00  0.000E+00  3.53991E+01  5.102E-01  2.000E+01  2.000E+04 -9.702E-01
   1   15   26     3     5    1.1251E+06 -2.2168E+04   1.1473E+06  0.000E+00  0.000E+00  0.000E+00  3.45159E+01  5.159E-01  2.000E+01  2.000E+04 -1.108E+00
   1   16   27     3     6    1.1473E+06 -2.9364E+04   1.1767E+06  0.000E+00  0.000E+00  0.000E+00  3.36340E+01  5.229E-01  2.000E+01  2.000E+04 -1.468E+00
   1   17   28     3     7    1.1767E+06 -3.6429E+04   1.2131E+06  0.000E+00  0.000E+00  0.000E+00  3.27540E+01  5.317E-01  2.000E+01  2.000E+04 -1.821E+00
   1   18   29     3     8    1.2131E+06 -4.7417E+04   1.2605E+06  0.000E+00  0.000E+00  0.000E+00  3.18762E+01  5.429E-01  2.000E+01  2.000E+04 -2.371E+00
   1   18   30     3     9    1.2605E+06 -4.3822E+04   1.3043E+06  0.000E+00  0.000E+00  0.000E+00  3.09992E+01  5.548E-01  2.000E+01  2.000E+04 -2.191E+00



1
              HEAD IN LAYER   1 AT END OF TIME STEP   1 IN STRESS PERIOD    8
  ---------------------------------------------------------------------------

          1      2      3      4      5      6      7      8      9     10
         11     12     13     14     15     16     17     18     19     20
         21     22     23     24     25     26     27     28     29     30
 .........................................................................
   1  ****** ****** ****** ****** ****** ****** ****** ****** ****** ******
      ****** ****** ****** ****** ****** ****** ****** ****** ****** ******
      ****** ****** ****** ****** ****** ****** ****** ****** ****** ******
   2  ****** ****** ****** ****** ****** ****** ****** ****** ****** ******
      ****** ****** ****** ****** ****** ****** ****** ****** ****** ******
      ****** ****** ****** ****** ****** ****** ****** ****** ****** ******
   3  ****** ****** ****** ****** ****** ****** ****** ****** ****** ******
      ****** ****** ****** ****** ****** ****** ****** ****** ****** ******
      ****** ****** ****** ****** ****** ****** ****** ****** ****** ******
   4  ****** ****** ****** ****** ****** ****** ****** ****** ****** ******
      ****** ****** ****** ****** ****** ****** ****** ****** ****** ******
      ****** ****** ****** ****** ****** ****** ****** ****** ****** ******
   5  ****** ****** ****** ****** ****** ****** ****** ****** ****** ******
      ****** ****** ****** ****** ****** ****** ****** ****** ****** ******
      ****** ****** ****** ****** ****** ****** ****** ****** ****** ******
   6  ****** ****** ****** ****** ****** ****** ****** ****** ****** ******
      ****** ****** ****** ****** ****** ****** ****** ****** ****** ******
      ****** ****** ****** ****** ****** ****** ****** ****** ****** ******
   7  ****** ****** ****** ****** ****** ****** ****** ****** ****** ******
      ****** ****** ****** ****** ****** ****** ****** ****** ****** ******
      ****** ****** ****** ****** ****** ****** ****** ****** ****** ******
   8  ****** ****** ****** ****** ****** ****** ****** ****** ****** ******
      ****** ****** ****** ****** ****** ****** ****** ****** ****** ******
      ****** ****** ****** ****** ****** ****** ****** ****** ****** ******
   9  ****** ****** ****** ****** ****** ****** ****** ****** ****** ******
      ****** ****** ****** ****** ****** ****** ****** ****** ****** ******
      ****** ****** ****** ****** ****** ****** ****** ****** ****** ******
  10  ****** ****** ****** ****** ****** ****** ****** ****** ****** ******
      ****** ****** ****** ****** ****** ****** ****** ****** ****** ******
      ****** ****** ****** ****** ****** ****** ****** ****** ****** ******
  11  ****** ****** ****** ****** ****** ****** ****** ****** ****** ******
      ****** ****** ****** ****** ****** ****** ****** ****** ****** ******
      ****** ****** ****** ****** ****** ****** ****** ****** ****** ******
  12  ****** ****** ****** ****** ****** ****** ****** ****** ****** ******
      ****** ****** ****** ****** ****** ****** ****** ****** ****** ******
      ****** ****** ****** ****** ****** ****** ****** ****** ****** ******
  13  ****** ****** ****** ****** ****** ****** ****** ****** ****** ******
      ****** ****** ****** ****** ****** ****** ****** ****** ****** ******
      ****** ****** ****** ****** ****** ****** ****** ****** ****** ******
  14  ****** ****** ****** ****** ****** ****** ****** ****** ****** ******
      ****** ****** ****** ****** ****** ****** ****** ****** ****** ******
      ****** ****** ****** ****** ****** ****** ****** ****** ****** ******
  15  ****** ****** ****** ****** ****** ****** ****** ****** ****** ******
      ****** ****** ****** ****** ****** ****** ****** ****** ****** ******
      ****** ****** ****** ****** ****** ****** ****** ****** ****** ******
  16  ****** ****** ****** ****** ****** ****** ****** ****** ****** ******
      ****** ****** ****** ****** ****** ****** ****** ****** ****** ******
      ****** ****** ****** ****** ****** ****** ****** ****** ****** ******
  17  ****** ****** ****** ****** ****** ****** ****** ****** ****** ******
      ****** ****** ****** ****** ****** ****** ****** ****** ****** ******
      ****** ****** ****** ****** ****** ****** ****** ****** ****** ******
  18  ****** ****** ****** ****** ****** ****** ****** ****** ****** ******
      ****** ****** ****** ****** ****** ****** ****** ****** ****** ******
      ****** ****** ****** ****** ****** ****** ****** ****** ****** ******
  19  ****** ****** ****** ****** ****** ****** ****** ****** ****** ******
      ****** ****** ****** ****** ****** ****** ****** ****** ****** ******
      ****** ****** ****** ****** ****** ****** ****** ****** ****** ******
  20  ****** ****** ****** ****** ****** ****** ****** ****** ****** ******
      ****** ****** ****** ****** ****** ****** ****** ****** ****** ******
      ****** ****** ****** ****** ****** ****** ****** ****** ****** ******
  21  ****** ****** ****** ****** ****** ****** ****** ****** ****** ******
      ****** ****** ****** ****** ****** ****** ****** ****** ****** ******
      ****** ****** ****** ****** ****** ****** ****** ****** ****** ******
  22  ****** ****** ****** ****** ****** ****** ****** ****** ****** ******
      ****** ****** ****** ****** ****** ****** ****** ****** ****** ******
      ****** ****** ****** ****** ****** ****** ****** ****** ****** ******
  23  ****** ****** ****** ****** ****** ****** ****** ****** ****** ******
      ****** ****** ****** ****** ****** ****** ****** ****** ****** ******
      ****** ****** ****** ****** ****** ****** ****** ****** ****** ******
  24  ****** ****** ****** ****** ****** ****** ****** ****** ****** ******
      ****** ****** ****** ****** ****** ****** ****** ****** ****** ******
      ****** ****** ****** ****** ****** ****** ****** ****** ****** ******
  25  ****** ****** ****** ****** ****** ****** ****** ****** ****** ******
      ****** ****** ****** ****** ****** ****** ****** ****** ****** ******
      ****** ****** ****** ****** ****** ****** ****** ****** ****** ******

 HEAD WILL BE SAVED ON UNIT   51 AT END OF TIME STEP    1, STRESS PERIOD    8
1
  VOLUMETRIC BUDGET FOR ENTIRE MODEL AT END OF TIME STEP    1, STRESS PERIOD   8
  ------------------------------------------------------------------------------

     CUMULATIVE VOLUMES      L**3       RATES FOR THIS TIME STEP      L**3/T
     ------------------                 ------------------------

           IN:                                      IN:
           ---                                      ---
             STORAGE =    20838515.1120               STORAGE =           0.0000
       CONSTANT HEAD =   915407442.2602         CONSTANT HEAD =     1244769.8285
               WELLS =           0.0000                 WELLS =           0.0000
            RECHARGE =    17608800.0000              RECHARGE =       27600.0000
      STREAM LEAKAGE =           0.0000        STREAM LEAKAGE =           0.0000

            TOTAL IN =   953854757.3723              TOTAL IN =     1272369.8285

          OUT:                                     OUT:
          ----                                     ----
             STORAGE =      562942.0342               STORAGE =        1397.1112
       CONSTANT HEAD =           0.0000         CONSTANT HEAD =           0.0000
               WELLS =   104797921.0553                 WELLS =      116634.6706
            RECHARGE =           0.0000              RECHARGE =           0.0000
      STREAM LEAKAGE =   848493897.7832        STREAM LEAKAGE =     1154338.0224

           TOTAL OUT =   953854760.8727             TOTAL OUT =     1272369.8043

            IN - OUT =          -3.5004              IN - OUT =       2.4219E-02

 PERCENT DISCREPANCY =          -0.00     PERCENT DISCREPANCY =           0.00






         TIME SUMMARY AT END OF TIME STEP    1 IN STRESS PERIOD    8
                    SECONDS     MINUTES      HOURS       DAYS        YEARS
                    -----------------------------------------------------------
   TIME STEP LENGTH 7.86240E+06 1.31040E+05  2184.0      91.000     0.24914    
 STRESS PERIOD TIME 7.86240E+06 1.31040E+05  2184.0      91.000     0.24914    
         TOTAL TIME 6.30720E+07 1.05120E+06  17520.      730.00      1.9986    
1
1
                            STRESS PERIOD NO.    9, LENGTH =   92.00000    
                            -----------------------------------------------

                              NUMBER OF TIME STEPS =     1

                               MULTIPLIER FOR DELT =     1.500

                            INITIAL TIME STEP SIZE =   92.00000    

 WELL NO.  LAYER   ROW   COL   STRESS RATE         
 --------------------------------------------------
      1      1      4      5     -0.5000E+05
      2      1      2     11     -0.5000E+05
      3      1      6     11     -0.1663E+05

      3 WELLS

                 RECHARGE =  5.000000E-04

 REUSING STREAM SEGMENT DATA FROM LAST STRESS PERIOD
 
 SOLVING FOR HEAD 


     5 CALLS TO PCG ROUTINE FOR TIME STEP   1 IN STRESS PERIOD    9
    20 TOTAL ITERATIONS

 OUTPUT CONTROL FOR STRESS PERIOD    9   TIME STEP    1
    SAVE BUDGET
    SAVE HEAD FOR ALL LAYERS
    PRINT HEAD FOR ALL LAYERS
 UBDSV2 SAVING "STREAMFLOW OUT  " ON UNIT  50 AT TIME STEP  1, STRESS PERIOD   9



 STREAM LISTING     PERIOD      9   STEP        1

 LAYER ROW COL. STREAM  RCH.  FLOW INTO     FLOW TO   FLOW OUT OF   OVRLND.     DIRECT     STREAM       STREAM     STREAM     STREAM   STREAMBED  STREAMBED
                SEG.NO.  NO.  STRM. RCH.    AQUIFER    STRM. RCH.    RUNOFF     PRECIP       ET          HEAD       DEPTH      WIDTH   CONDCTNC.   GRADIENT

   1   13    1     1     1    1.0000E+05 -2.5796E+04   1.2580E+05  0.000E+00  0.000E+00  0.000E+00  4.84169E+01  1.556E-01  2.000E+01  2.000E+04 -1.290E+00
   1   13    2     1     2    1.2580E+05 -3.4975E+04   1.6077E+05  0.000E+00  0.000E+00  0.000E+00  4.79636E+01  1.795E-01  2.000E+01  2.000E+04 -1.749E+00
   1   14    3     1     3    1.6077E+05 -3.1213E+04   1.9198E+05  0.000E+00  0.000E+00  0.000E+00  4.75101E+01  2.033E-01  2.000E+01  2.000E+04 -1.561E+00
   1   15    4     1     4    1.9198E+05 -3.0963E+04   2.2295E+05  0.000E+00  0.000E+00  0.000E+00  4.70537E+01  2.241E-01  2.000E+01  2.000E+04 -1.548E+00
   1   16    5     1     5    2.2295E+05 -3.3035E+04   2.5598E+05  0.000E+00  0.000E+00  0.000E+00  4.65965E+01  2.443E-01  2.000E+01  2.000E+04 -1.652E+00
   1   16    6     1     6    2.5598E+05 -2.8726E+04   2.8471E+05  0.000E+00  0.000E+00  0.000E+00  4.61377E+01  2.627E-01  2.000E+01  2.000E+04 -1.436E+00
   1   16    7     1     7    2.8471E+05 -2.8507E+04   3.1321E+05  0.000E+00  0.000E+00  0.000E+00  4.56768E+01  2.791E-01  2.000E+01  2.000E+04 -1.425E+00
   1   16    8     1     8    3.1321E+05 -2.8690E+04   3.4190E+05  0.000E+00  0.000E+00  0.000E+00  4.52152E+01  2.948E-01  2.000E+01  2.000E+04 -1.434E+00
   1   16    9     1     9    3.4190E+05 -2.8808E+04   3.7071E+05  0.000E+00  0.000E+00  0.000E+00  4.47532E+01  3.100E-01  2.000E+01  2.000E+04 -1.440E+00
   1   16   10     1    10    3.7071E+05 -2.8912E+04   3.9962E+05  0.000E+00  0.000E+00  0.000E+00  4.42908E+01  3.249E-01  2.000E+01  2.000E+04 -1.446E+00
   1   16   11     1    11    3.9962E+05 -2.9631E+04   4.2926E+05  0.000E+00  0.000E+00  0.000E+00  4.38281E+01  3.395E-01  2.000E+01  2.000E+04 -1.482E+00
   1   16   12     1    12    4.2926E+05 -3.5283E+04   4.6454E+05  0.000E+00  0.000E+00  0.000E+00  4.33665E+01  3.552E-01  2.000E+01  2.000E+04 -1.764E+00
   1   15   13     1    13    4.6454E+05 -3.3644E+04   4.9818E+05  0.000E+00  0.000E+00  0.000E+00  4.29055E+01  3.714E-01  2.000E+01  2.000E+04 -1.682E+00
   1   14   14     1    14    4.9818E+05 -3.3999E+04   5.3218E+05  0.000E+00  0.000E+00  0.000E+00  4.24436E+01  3.868E-01  2.000E+01  2.000E+04 -1.700E+00
   1   13   15     1    15    5.3218E+05 -3.6058E+04   5.6824E+05  0.000E+00  0.000E+00  0.000E+00  4.19819E+01  4.024E-01  2.000E+01  2.000E+04 -1.803E+00
   1   12   16     1    16    5.6824E+05 -4.1945E+04   6.1019E+05  0.000E+00  0.000E+00  0.000E+00  4.15215E+01  4.193E-01  2.000E+01  2.000E+04 -2.097E+00
   1   12   17     1    17    6.1019E+05 -3.3128E+04   6.4331E+05  0.000E+00  0.000E+00  0.000E+00  4.10601E+01  4.351E-01  2.000E+01  2.000E+04 -1.656E+00
   1   12   18     1    18    6.4331E+05 -3.1752E+04   6.7506E+05  0.000E+00  0.000E+00  0.000E+00  4.05962E+01  4.485E-01  2.000E+01  2.000E+04 -1.588E+00
   1   12   19     1    19    6.7506E+05 -3.5910E+04   7.1098E+05  0.000E+00  0.000E+00  0.000E+00  4.01326E+01  4.621E-01  2.000E+01  2.000E+04 -1.796E+00
   1   13   20     1    20    7.1098E+05 -2.6516E+04   7.3749E+05  0.000E+00  0.000E+00  0.000E+00  3.96677E+01  4.745E-01  2.000E+01  2.000E+04 -1.326E+00
   1   14   21     1    21    7.3749E+05 -1.9604E+04   7.5710E+05  0.000E+00  0.000E+00  0.000E+00  3.91994E+01  4.835E-01  2.000E+01  2.000E+04 -9.802E-01
   1   14   22     1    22    7.5710E+05 -1.7524E+03   7.5885E+05  0.000E+00  0.000E+00  0.000E+00  3.87263E+01  4.877E-01  2.000E+01  2.000E+04 -8.762E-02
   1    9   30     2     1    5.0000E+04 -2.6458E+04   7.6458E+04  0.000E+00  0.000E+00  0.000E+00  4.02584E+01  1.334E-01  2.000E+01  2.000E+04 -1.323E+00
   1    9   29     2     2    7.6458E+04 -2.8919E+04   1.0538E+05  0.000E+00  0.000E+00  0.000E+00  4.00409E+01  1.659E-01  2.000E+01  2.000E+04 -1.446E+00
   1    9   28     2     3    1.0538E+05 -3.3190E+04   1.3857E+05  0.000E+00  0.000E+00  0.000E+00  3.98228E+01  1.978E-01  2.000E+01  2.000E+04 -1.659E+00
   1    9   27     2     4    1.3857E+05 -4.7249E+04   1.8582E+05  0.000E+00  0.000E+00  0.000E+00  3.96097E+01  2.347E-01  2.000E+01  2.000E+04 -2.362E+00
   1   10   26     2     5    1.8582E+05 -3.3206E+04   2.1902E+05  0.000E+00  0.000E+00  0.000E+00  3.93931E+01  2.681E-01  2.000E+01  2.000E+04 -1.660E+00
   1   11   25     2     6    2.1902E+05 -2.4854E+04   2.4388E+05  0.000E+00  0.000E+00  0.000E+00  3.91656E+01  2.906E-01  2.000E+01  2.000E+04 -1.243E+00
   1   12   24     2     7    2.4388E+05 -1.8303E+04   2.6218E+05  0.000E+00  0.000E+00  0.000E+00  3.89315E+01  3.065E-01  2.000E+01  2.000E+04 -9.151E-01
   1   13   23     2     8    2.6218E+05 -1.2998E+04   2.7518E+05  0.000E+00  0.000E+00  0.000E+00  3.86928E+01  3.178E-01  2.000E+01  2.000E+04 -6.499E-01
   1   14   22     2     9    2.7518E+05 -7.2801E+03   2.8246E+05  0.000E+00  0.000E+00  0.000E+00  3.84499E+01  3.249E-01  2.000E+01  2.000E+04 -3.640E-01
   1   14   22     3     1    1.0413E+06 -1.5332E+04   1.0566E+06  0.000E+00  0.000E+00  0.000E+00  3.80473E+01  4.918E-01  2.000E+01  2.000E+04 -7.666E-01
   1   15   23     3     2    1.0566E+06 -2.3650E+04   1.0803E+06  0.000E+00  0.000E+00  0.000E+00  3.71639E+01  4.972E-01  2.000E+01  2.000E+04 -1.182E+00
   1   15   24     3     3    1.0803E+06 -1.9689E+04   1.1000E+06  0.000E+00  0.000E+00  0.000E+00  3.62810E+01  5.033E-01  2.000E+01  2.000E+04 -9.845E-01
   1   15   25     3     4    1.1000E+06 -1.9284E+04   1.1193E+06  0.000E+00  0.000E+00  0.000E+00  3.53975E+01  5.086E-01  2.000E+01  2.000E+04 -9.642E-01
   1   15   26     3     5    1.1193E+06 -2.2028E+04   1.1413E+06  0.000E+00  0.000E+00  0.000E+00  3.45143E+01  5.143E-01  2.000E+01  2.000E+04 -1.101E+00
   1   16   27     3     6    1.1413E+06 -2.9195E+04   1.1705E+06  0.000E+00  0.000E+00  0.000E+00  3.36324E+01  5.213E-01  2.000E+01  2.000E+04 -1.460E+00
   1   17   28     3     7    1.1705E+06 -3.6256E+04   1.2067E+06  0.000E+00  0.000E+00  0.000E+00  3.27523E+01  5.301E-01  2.000E+01  2.000E+04 -1.813E+00
   1   18   29     3     8    1.2067E+06 -4.7255E+04   1.2540E+06  0.000E+00  0.000E+00  0.000E+00  3.18745E+01  5.412E-01  2.000E+01  2.000E+04 -2.363E+00
   1   18   30     3     9    1.2540E+06 -4.3686E+04   1.2977E+06  0.000E+00  0.000E+00  0.000E+00  3.09975E+01  5.531E-01  2.000E+01  2.000E+04 -2.184E+00



1
              HEAD IN LAYER   1 AT END OF TIME STEP   1 IN STRESS PERIOD    9
  ---------------------------------------------------------------------------

          1      2      3      4      5      6      7      8      9     10
         11     12     13     14     15     16     17     18     19     20
         21     22     23     24     25     26     27     28     29     30
 .........................................................................
   1  ****** ****** ****** ****** ****** ****** ****** ****** ****** ******
      ****** ****** ****** ****** ****** ****** ****** ****** ****** ******
      ****** ****** ****** ****** ****** ****** ****** ****** ****** ******
   2  ****** ****** ****** ****** ****** ****** ****** ****** ****** ******
      ****** ****** ****** ****** ****** ****** ****** ****** ****** ******
      ****** ****** ****** ****** ****** ****** ****** ****** ****** ******
   3  ****** ****** ****** ****** ****** ****** ****** ****** ****** ******
      ****** ****** ****** ****** ****** ****** ****** ****** ****** ******
      ****** ****** ****** ****** ****** ****** ****** ****** ****** ******
   4  ****** ****** ****** ****** ****** ****** ****** ****** ****** ******
      ****** ****** ****** ****** ****** ****** ****** ****** ****** ******
      ****** ****** ****** ****** ****** ****** ****** ****** ****** ******
   5  ****** ****** ****** ****** ****** ****** ****** ****** ****** ******
      ****** ****** ****** ****** ****** ****** ****** ****** ****** ******
      ****** ****** ****** ****** ****** ****** ****** ****** ****** ******
   6  ****** ****** ****** ****** ****** ****** ****** ****** ****** ******
      ****** ****** ****** ****** ****** ****** ****** ****** ****** ******
      ****** ****** ****** ****** ****** ****** ****** ****** ****** ******
   7  ****** ****** ****** ****** ****** ****** ****** ****** ****** ******
      ****** ****** ****** ****** ****** ****** ****** ****** ****** ******
      ****** ****** ****** ****** ****** ****** ****** ****** ****** ******
   8  ****** ****** ****** ****** ****** ****** ****** ****** ****** ******
      ****** ****** ****** ****** ****** ****** ****** ****** ****** ******
      ****** ****** ****** ****** ****** ****** ****** ****** ****** ******
   9  ****** ****** ****** ****** ****** ****** ****** ****** ****** ******
      ****** ****** ****** ****** ****** ****** ****** ****** ****** ******
      ****** ****** ****** ****** ****** ****** ****** ****** ****** ******
  10  ****** ****** ****** ****** ****** ****** ****** ****** ****** ******
      ****** ****** ****** ****** ****** ****** ****** ****** ****** ******
      ****** ****** ****** ****** ****** ****** ****** ****** ****** ******
  11  ****** ****** ****** ****** ****** ****** ****** ****** ****** ******
      ****** ****** ****** ****** ****** ****** ****** ****** ****** ******
      ****** ****** ****** ****** ****** ****** ****** ****** ****** ******
  12  ****** ****** ****** ****** ****** ****** ****** ****** ****** ******
      ****** ****** ****** ****** ****** ****** ****** ****** ****** ******
      ****** ****** ****** ****** ****** ****** ****** ****** ****** ******
  13  ****** ****** ****** ****** ****** ****** ****** ****** ****** ******
      ****** ****** ****** ****** ****** ****** ****** ****** ****** ******
      ****** ****** ****** ****** ****** ****** ****** ****** ****** ******
  14  ****** ****** ****** ****** ****** ****** ****** ****** ****** ******
      ****** ****** ****** ****** ****** ****** ****** ****** ****** ******
      ****** ****** ****** ****** ****** ****** ****** ****** ****** ******
  15  ****** ****** ****** ****** ****** ****** ****** ****** ****** ******
      ****** ****** ****** ****** ****** ****** ****** ****** ****** ******
      ****** ****** ****** ****** ****** ****** ****** ****** ****** ******
  16  ****** ****** ****** ****** ****** ****** ****** ****** ****** ******
      ****** ****** ****** ****** ****** ****** ****** ****** ****** ******
      ****** ****** ****** ****** ****** ****** ****** ****** ****** ******
  17  ****** ****** ****** ****** ****** ****** ****** ****** ****** ******
      ****** ****** ****** ****** ****** ****** ****** ****** ****** ******
      ****** ****** ****** ****** ****** ****** ****** ****** ****** ******
  18  ****** ****** ****** ****** ****** ****** ****** ****** ****** ******
      ****** ****** ****** ****** ****** ****** ****** ****** ****** ******
      ****** ****** ****** ****** ****** ****** ****** ****** ****** ******
  19  ****** ****** ****** ****** ****** ****** ****** ****** ****** ******
      ****** ****** ****** ****** ****** ****** ****** ****** ****** ******
      ****** ****** ****** ****** ****** ****** ****** ****** ****** ******
  20  ****** ****** ****** ****** ****** ****** ****** ****** ****** ******
      ****** ****** ****** ****** ****** ****** ****** ****** ****** ******
      ****** ****** ****** ****** ****** ****** ****** ****** ****** ******
  21  ****** ****** ****** ****** ****** ****** ****** ****** ****** ******
      ****** ****** ****** ****** ****** ****** ****** ****** ****** ******
      ****** ****** ****** ****** ****** ****** ****** ****** ****** ******
  22  ****** ****** ****** ****** ****** ****** ****** ****** ****** ******
      ****** ****** ****** ****** ****** ****** ****** ****** ****** ******
      ****** ****** ****** ****** ****** ****** ****** ****** ****** ******
  23  ****** ****** ****** ****** ****** ****** ****** ****** ****** ******
      ****** ****** ****** ****** ****** ****** ****** ****** ****** ******
      ****** ****** ****** ****** ****** ****** ****** ****** ****** ******
  24  ****** ****** ****** ****** ****** ****** ****** ****** ****** ******
      ****** ****** ****** ****** ****** ****** ****** ****** ****** ******
      ****** ****** ****** ****** ****** ****** ****** ****** ****** ******
  25  ****** ****** ****** ****** ****** ****** ****** ****** ****** ******
      ****** ****** ****** ****** ****** ****** ****** ****** ****** ******
      ****** ****** ****** ****** ****** ****** ****** ****** ****** ******

 HEAD WILL BE SAVED ON UNIT   51 AT END OF TIME STEP    1, STRESS PERIOD    9
1
  VOLUMETRIC BUDGET FOR ENTIRE MODEL AT END OF TIME STEP    1, STRESS PERIOD   9
  ------------------------------------------------------------------------------

     CUMULATIVE VOLUMES      L**3       RATES FOR THIS TIME STEP      L**3/T
     ------------------                 ------------------------

           IN:                                      IN:
           ---                                      ---
             STORAGE =    20890732.9262               STORAGE =         567.5849
       CONSTANT HEAD =  1030402413.7822         CONSTANT HEAD =     1249945.3426
               WELLS =           0.0000                 WELLS =           0.0000
            RECHARGE =    18878400.0000              RECHARGE =       13800.0000
      STREAM LEAKAGE =           0.0000        STREAM LEAKAGE =           0.0000

            TOTAL IN =  1070171546.7084              TOTAL IN =     1264312.9276

          OUT:                                     OUT:
          ----                                     ----
             STORAGE =      562942.0342               STORAGE =           0.0000
       CONSTANT HEAD =           0.0000         CONSTANT HEAD =           0.0000
               WELLS =   115528310.7536                 WELLS =      116634.6706
            RECHARGE =           0.0000              RECHARGE =           0.0000
      STREAM LEAKAGE =   954080299.2100        STREAM LEAKAGE =     1147678.2764

           TOTAL OUT =  1070171551.9978             TOTAL OUT =     1264312.9470

            IN - OUT =          -5.2894              IN - OUT =      -1.9445E-02

 PERCENT DISCREPANCY =          -0.00     PERCENT DISCREPANCY =          -0.00






         TIME SUMMARY AT END OF TIME STEP    1 IN STRESS PERIOD    9
                    SECONDS     MINUTES      HOURS       DAYS        YEARS
                    -----------------------------------------------------------
   TIME STEP LENGTH 7.94880E+06 1.32480E+05  2208.0      92.000     0.25188    
 STRESS PERIOD TIME 7.94880E+06 1.32480E+05  2208.0      92.000     0.25188    
         TOTAL TIME 7.10208E+07 1.18368E+06  19728.      822.00      2.2505    
1
1
                            STRESS PERIOD NO.   10, LENGTH =   91.00000    
                            -----------------------------------------------

                              NUMBER OF TIME STEPS =     1

                               MULTIPLIER FOR DELT =     1.500

                            INITIAL TIME STEP SIZE =   91.00000    

 WELL NO.  LAYER   ROW   COL   STRESS RATE         
 --------------------------------------------------
      1      1      4      5     -0.5000E+05
      2      1      2     11     -0.5000E+05
      3      1      6     11     -0.1663E+05

      3 WELLS

                 RECHARGE =  2.000000E-03

 REUSING STREAM SEGMENT DATA FROM LAST STRESS PERIOD
 
 SOLVING FOR HEAD 


     6 CALLS TO PCG ROUTINE FOR TIME STEP   1 IN STRESS PERIOD   10
    22 TOTAL ITERATIONS

 OUTPUT CONTROL FOR STRESS PERIOD   10   TIME STEP    1
    SAVE BUDGET
    SAVE HEAD FOR ALL LAYERS
    PRINT HEAD FOR ALL LAYERS
 UBDSV2 SAVING "STREAMFLOW OUT  " ON UNIT  50 AT TIME STEP  1, STRESS PERIOD  10



 STREAM LISTING     PERIOD     10   STEP        1

 LAYER ROW COL. STREAM  RCH.  FLOW INTO     FLOW TO   FLOW OUT OF   OVRLND.     DIRECT     STREAM       STREAM     STREAM     STREAM   STREAMBED  STREAMBED
                SEG.NO.  NO.  STRM. RCH.    AQUIFER    STRM. RCH.    RUNOFF     PRECIP       ET          HEAD       DEPTH      WIDTH   CONDCTNC.   GRADIENT

   1   13    1     1     1    1.0000E+05 -2.6449E+04   1.2645E+05  0.000E+00  0.000E+00  0.000E+00  4.84172E+01  1.558E-01  2.000E+01  2.000E+04 -1.322E+00
   1   13    2     1     2    1.2645E+05 -3.5755E+04   1.6220E+05  0.000E+00  0.000E+00  0.000E+00  4.79644E+01  1.803E-01  2.000E+01  2.000E+04 -1.788E+00
   1   14    3     1     3    1.6220E+05 -3.1975E+04   1.9418E+05  0.000E+00  0.000E+00  0.000E+00  4.75114E+01  2.046E-01  2.000E+01  2.000E+04 -1.599E+00
   1   15    4     1     4    1.9418E+05 -3.1696E+04   2.2587E+05  0.000E+00  0.000E+00  0.000E+00  4.70553E+01  2.258E-01  2.000E+01  2.000E+04 -1.585E+00
   1   16    5     1     5    2.2587E+05 -3.3697E+04   2.5957E+05  0.000E+00  0.000E+00  0.000E+00  4.65985E+01  2.463E-01  2.000E+01  2.000E+04 -1.685E+00
   1   16    6     1     6    2.5957E+05 -2.9301E+04   2.8887E+05  0.000E+00  0.000E+00  0.000E+00  4.61400E+01  2.650E-01  2.000E+01  2.000E+04 -1.465E+00
   1   16    7     1     7    2.8887E+05 -2.9076E+04   3.1795E+05  0.000E+00  0.000E+00  0.000E+00  4.56793E+01  2.815E-01  2.000E+01  2.000E+04 -1.454E+00
   1   16    8     1     8    3.1795E+05 -2.9261E+04   3.4721E+05  0.000E+00  0.000E+00  0.000E+00  4.52179E+01  2.975E-01  2.000E+01  2.000E+04 -1.463E+00
   1   16    9     1     9    3.4721E+05 -2.9379E+04   3.7659E+05  0.000E+00  0.000E+00  0.000E+00  4.47561E+01  3.130E-01  2.000E+01  2.000E+04 -1.469E+00
   1   16   10     1    10    3.7659E+05 -2.9481E+04   4.0607E+05  0.000E+00  0.000E+00  0.000E+00  4.42939E+01  3.280E-01  2.000E+01  2.000E+04 -1.474E+00
   1   16   11     1    11    4.0607E+05 -3.0208E+04   4.3628E+05  0.000E+00  0.000E+00  0.000E+00  4.38314E+01  3.428E-01  2.000E+01  2.000E+04 -1.510E+00
   1   16   12     1    12    4.3628E+05 -3.5955E+04   4.7223E+05  0.000E+00  0.000E+00  0.000E+00  4.33700E+01  3.587E-01  2.000E+01  2.000E+04 -1.798E+00
   1   15   13     1    13    4.7223E+05 -3.4386E+04   5.0662E+05  0.000E+00  0.000E+00  0.000E+00  4.29092E+01  3.751E-01  2.000E+01  2.000E+04 -1.719E+00
   1   14   14     1    14    5.0662E+05 -3.4766E+04   5.4139E+05  0.000E+00  0.000E+00  0.000E+00  4.24476E+01  3.908E-01  2.000E+01  2.000E+04 -1.738E+00
   1   13   15     1    15    5.4139E+05 -3.6819E+04   5.7820E+05  0.000E+00  0.000E+00  0.000E+00  4.19861E+01  4.066E-01  2.000E+01  2.000E+04 -1.841E+00
   1   12   16     1    16    5.7820E+05 -4.2680E+04   6.2088E+05  0.000E+00  0.000E+00  0.000E+00  4.15259E+01  4.237E-01  2.000E+01  2.000E+04 -2.134E+00
   1   12   17     1    17    6.2088E+05 -3.3719E+04   6.5460E+05  0.000E+00  0.000E+00  0.000E+00  4.10647E+01  4.397E-01  2.000E+01  2.000E+04 -1.686E+00
   1   12   18     1    18    6.5460E+05 -3.2317E+04   6.8692E+05  0.000E+00  0.000E+00  0.000E+00  4.06009E+01  4.532E-01  2.000E+01  2.000E+04 -1.616E+00
   1   12   19     1    19    6.8692E+05 -3.6527E+04   7.2345E+05  0.000E+00  0.000E+00  0.000E+00  4.01374E+01  4.670E-01  2.000E+01  2.000E+04 -1.826E+00
   1   13   20     1    20    7.2345E+05 -2.7092E+04   7.5054E+05  0.000E+00  0.000E+00  0.000E+00  3.96727E+01  4.795E-01  2.000E+01  2.000E+04 -1.355E+00
   1   14   21     1    21    7.5054E+05 -2.0101E+04   7.7064E+05  0.000E+00  0.000E+00  0.000E+00  3.92046E+01  4.887E-01  2.000E+01  2.000E+04 -1.005E+00
   1   14   22     1    22    7.7064E+05 -1.9265E+03   7.7257E+05  0.000E+00  0.000E+00  0.000E+00  3.87315E+01  4.929E-01  2.000E+01  2.000E+04 -9.633E-02
   1    9   30     2     1    5.0000E+04 -2.6903E+04   7.6903E+04  0.000E+00  0.000E+00  0.000E+00  4.02587E+01  1.337E-01  2.000E+01  2.000E+04 -1.345E+00
   1    9   29     2     2    7.6903E+04 -2.9365E+04   1.0627E+05  0.000E+00  0.000E+00  0.000E+00  4.00416E+01  1.666E-01  2.000E+01  2.000E+04 -1.468E+00
   1    9   28     2     3    1.0627E+05 -3.3650E+04   1.3992E+05  0.000E+00  0.000E+00  0.000E+00  3.98239E+01  1.989E-01  2.000E+01  2.000E+04 -1.683E+00
   1    9   27     2     4    1.3992E+05 -4.7813E+04   1.8773E+05  0.000E+00  0.000E+00  0.000E+00  3.96112E+01  2.362E-01  2.000E+01  2.000E+04 -2.391E+00
   1   10   26     2     5    1.8773E+05 -3.3791E+04   2.2152E+05  0.000E+00  0.000E+00  0.000E+00  3.93949E+01  2.699E-01  2.000E+01  2.000E+04 -1.690E+00
   1   11   25     2     6    2.2152E+05 -2.5419E+04   2.4694E+05  0.000E+00  0.000E+00  0.000E+00  3.91677E+01  2.927E-01  2.000E+01  2.000E+04 -1.271E+00
   1   12   24     2     7    2.4694E+05 -1.8808E+04   2.6575E+05  0.000E+00  0.000E+00  0.000E+00  3.89339E+01  3.089E-01  2.000E+01  2.000E+04 -9.404E-01
   1   13   23     2     8    2.6575E+05 -1.3409E+04   2.7916E+05  0.000E+00  0.000E+00  0.000E+00  3.86954E+01  3.204E-01  2.000E+01  2.000E+04 -6.704E-01
   1   14   22     2     9    2.7916E+05 -7.5020E+03   2.8666E+05  0.000E+00  0.000E+00  0.000E+00  3.84528E+01  3.278E-01  2.000E+01  2.000E+04 -3.751E-01
   1   14   22     3     1    1.0592E+06 -1.5510E+04   1.0747E+06  0.000E+00  0.000E+00  0.000E+00  3.80524E+01  4.968E-01  2.000E+01  2.000E+04 -7.755E-01
   1   15   23     3     2    1.0747E+06 -2.4111E+04   1.0988E+06  0.000E+00  0.000E+00  0.000E+00  3.71690E+01  5.023E-01  2.000E+01  2.000E+04 -1.206E+00
   1   15   24     3     3    1.0988E+06 -2.0071E+04   1.1189E+06  0.000E+00  0.000E+00  0.000E+00  3.62862E+01  5.084E-01  2.000E+01  2.000E+04 -1.004E+00
   1   15   25     3     4    1.1189E+06 -1.9663E+04   1.1386E+06  0.000E+00  0.000E+00  0.000E+00  3.54028E+01  5.139E-01  2.000E+01  2.000E+04 -9.831E-01
   1   15   26     3     5    1.1386E+06 -2.2469E+04   1.1611E+06  0.000E+00  0.000E+00  0.000E+00  3.45196E+01  5.196E-01  2.000E+01  2.000E+04 -1.123E+00
   1   16   27     3     6    1.1611E+06 -2.9728E+04   1.1908E+06  0.000E+00  0.000E+00  0.000E+00  3.36378E+01  5.267E-01  2.000E+01  2.000E+04 -1.486E+00
   1   17   28     3     7    1.1908E+06 -3.6802E+04   1.2276E+06  0.000E+00  0.000E+00  0.000E+00  3.27578E+01  5.355E-01  2.000E+01  2.000E+04 -1.840E+00
   1   18   29     3     8    1.2276E+06 -4.7768E+04   1.2753E+06  0.000E+00  0.000E+00  0.000E+00  3.18800E+01  5.467E-01  2.000E+01  2.000E+04 -2.388E+00
   1   18   30     3     9    1.2753E+06 -4.4113E+04   1.3195E+06  0.000E+00  0.000E+00  0.000E+00  3.10031E+01  5.587E-01  2.000E+01  2.000E+04 -2.206E+00



1
              HEAD IN LAYER   1 AT END OF TIME STEP   1 IN STRESS PERIOD   10
  ---------------------------------------------------------------------------

          1      2      3      4      5      6      7      8      9     10
         11     12     13     14     15     16     17     18     19     20
         21     22     23     24     25     26     27     28     29     30
 .........................................................................
   1  ****** ****** ****** ****** ****** ****** ****** ****** ****** ******
      ****** ****** ****** ****** ****** ****** ****** ****** ****** ******
      ****** ****** ****** ****** ****** ****** ****** ****** ****** ******
   2  ****** ****** ****** ****** ****** ****** ****** ****** ****** ******
      ****** ****** ****** ****** ****** ****** ****** ****** ****** ******
      ****** ****** ****** ****** ****** ****** ****** ****** ****** ******
   3  ****** ****** ****** ****** ****** ****** ****** ****** ****** ******
      ****** ****** ****** ****** ****** ****** ****** ****** ****** ******
      ****** ****** ****** ****** ****** ****** ****** ****** ****** ******
   4  ****** ****** ****** ****** ****** ****** ****** ****** ****** ******
      ****** ****** ****** ****** ****** ****** ****** ****** ****** ******
      ****** ****** ****** ****** ****** ****** ****** ****** ****** ******
   5  ****** ****** ****** ****** ****** ****** ****** ****** ****** ******
      ****** ****** ****** ****** ****** ****** ****** ****** ****** ******
      ****** ****** ****** ****** ****** ****** ****** ****** ****** ******
   6  ****** ****** ****** ****** ****** ****** ****** ****** ****** ******
      ****** ****** ****** ****** ****** ****** ****** ****** ****** ******
      ****** ****** ****** ****** ****** ****** ****** ****** ****** ******
   7  ****** ****** ****** ****** ****** ****** ****** ****** ****** ******
      ****** ****** ****** ****** ****** ****** ****** ****** ****** ******
      ****** ****** ****** ****** ****** ****** ****** ****** ****** ******
   8  ****** ****** ****** ****** ****** ****** ****** ****** ****** ******
      ****** ****** ****** ****** ****** ****** ****** ****** ****** ******
      ****** ****** ****** ****** ****** ****** ****** ****** ****** ******
   9  ****** ****** ****** ****** ****** ****** ****** ****** ****** ******
      ****** ****** ****** ****** ****** ****** ****** ****** ****** ******
      ****** ****** ****** ****** ****** ****** ****** ****** ****** ******
  10  ****** ****** ****** ****** ****** ****** ****** ****** ****** ******
      ****** ****** ****** ****** ****** ****** ****** ****** ****** ******
      ****** ****** ****** ****** ****** ****** ****** ****** ****** ******
  11  ****** ****** ****** ****** ****** ****** ****** ****** ****** ******
      ****** ****** ****** ****** ****** ****** ****** ****** ****** ******
      ****** ****** ****** ****** ****** ****** ****** ****** ****** ******
  12  ****** ****** ****** ****** ****** ****** ****** ****** ****** ******
      ****** ****** ****** ****** ****** ****** ****** ****** ****** ******
      ****** ****** ****** ****** ****** ****** ****** ****** ****** ******
  13  ****** ****** ****** ****** ****** ****** ****** ****** ****** ******
      ****** ****** ****** ****** ****** ****** ****** ****** ****** ******
      ****** ****** ****** ****** ****** ****** ****** ****** ****** ******
  14  ****** ****** ****** ****** ****** ****** ****** ****** ****** ******
      ****** ****** ****** ****** ****** ****** ****** ****** ****** ******
      ****** ****** ****** ****** ****** ****** ****** ****** ****** ******
  15  ****** ****** ****** ****** ****** ****** ****** ****** ****** ******
      ****** ****** ****** ****** ****** ****** ****** ****** ****** ******
      ****** ****** ****** ****** ****** ****** ****** ****** ****** ******
  16  ****** ****** ****** ****** ****** ****** ****** ****** ****** ******
      ****** ****** ****** ****** ****** ****** ****** ****** ****** ******
      ****** ****** ****** ****** ****** ****** ****** ****** ****** ******
  17  ****** ****** ****** ****** ****** ****** ****** ****** ****** ******
      ****** ****** ****** ****** ****** ****** ****** ****** ****** ******
      ****** ****** ****** ****** ****** ****** ****** ****** ****** ******
  18  ****** ****** ****** ****** ****** ****** ****** ****** ****** ******
      ****** ****** ****** ****** ****** ****** ****** ****** ****** ******
      ****** ****** ****** ****** ****** ****** ****** ****** ****** ******
  19  ****** ****** ****** ****** ****** ****** ****** ****** ****** ******
      ****** ****** ****** ****** ****** ****** ****** ****** ****** ******
      ****** ****** ****** ****** ****** ****** ****** ****** ****** ******
  20  ****** ****** ****** ****** ****** ****** ****** ****** ****** ******
      ****** ****** ****** ****** ****** ****** ****** ****** ****** ******
      ****** ****** ****** ****** ****** ****** ****** ****** ****** ******
  21  ****** ****** ****** ****** ****** ****** ****** ****** ****** ******
      ****** ****** ****** ****** ****** ****** ****** ****** ****** ******
      ****** ****** ****** ****** ****** ****** ****** ****** ****** ******
  22  ****** ****** ****** ****** ****** ****** ****** ****** ****** ******
      ****** ****** ****** ****** ****** ****** ****** ****** ****** ******
      ****** ****** ****** ****** ****** ****** ****** ****** ****** ******
  23  ****** ****** ****** ****** ****** ****** ****** ****** ****** ******
      ****** ****** ****** ****** ****** ****** ****** ****** ****** ******
      ****** ****** ****** ****** ****** ****** ****** ****** ****** ******
  24  ****** ****** ****** ****** ****** ****** ****** ****** ****** ******
      ****** ****** ****** ****** ****** ****** ****** ****** ****** ******
      ****** ****** ****** ****** ****** ****** ****** ****** ****** ******
  25  ****** ****** ****** ****** ****** ****** ****** ****** ****** ******
      ****** ****** ****** ****** ****** ****** ****** ****** ****** ******
      ****** ****** ****** ****** ****** ****** ****** ****** ****** ******

 HEAD WILL BE SAVED ON UNIT   51 AT END OF TIME STEP    1, STRESS PERIOD   10
1
  VOLUMETRIC BUDGET FOR ENTIRE MODEL AT END OF TIME STEP    1, STRESS PERIOD  10
  ------------------------------------------------------------------------------

     CUMULATIVE VOLUMES      L**3       RATES FOR THIS TIME STEP      L**3/T
     ------------------                 ------------------------

           IN:                                      IN:
           ---                                      ---
             STORAGE =    20890732.9262               STORAGE =           0.0000
       CONSTANT HEAD =  1142590375.9946         CONSTANT HEAD =     1232834.7496
               WELLS =           0.0000                 WELLS =           0.0000
            RECHARGE =    23901600.0000              RECHARGE =       55200.0000
      STREAM LEAKAGE =           0.0000        STREAM LEAKAGE =           0.0000

            TOTAL IN =  1187382708.9208              TOTAL IN =     1288034.7496

          OUT:                                     OUT:
          ----                                     ----
             STORAGE =      739419.9364               STORAGE =        1939.3176
       CONSTANT HEAD =           0.0000         CONSTANT HEAD =           0.0000
               WELLS =   126142065.7813                 WELLS =      116634.6706
            RECHARGE =           0.0000              RECHARGE =           0.0000
      STREAM LEAKAGE =  1060501225.4130        STREAM LEAKAGE =     1169460.7275

           TOTAL OUT =  1187382711.1307             TOTAL OUT =     1288034.7157

            IN - OUT =          -2.2099              IN - OUT =       3.3840E-02

 PERCENT DISCREPANCY =          -0.00     PERCENT DISCREPANCY =           0.00






         TIME SUMMARY AT END OF TIME STEP    1 IN STRESS PERIOD   10
                    SECONDS     MINUTES      HOURS       DAYS        YEARS
                    -----------------------------------------------------------
   TIME STEP LENGTH 7.86240E+06 1.31040E+05  2184.0      91.000     0.24914    
 STRESS PERIOD TIME 7.86240E+06 1.31040E+05  2184.0      91.000     0.24914    
         TOTAL TIME 7.88832E+07 1.31472E+06  21912.      913.00      2.4997    
1
1
                            STRESS PERIOD NO.   11, LENGTH =   91.00000    
                            -----------------------------------------------

                              NUMBER OF TIME STEPS =     1

                               MULTIPLIER FOR DELT =     1.500

                            INITIAL TIME STEP SIZE =   91.00000    

 WELL NO.  LAYER   ROW   COL   STRESS RATE         
 --------------------------------------------------
      1      1      4      5     -0.5000E+05
      2      1      2     11     -0.5000E+05
      3      1      6     11     -0.1663E+05

      3 WELLS

                 RECHARGE =   0.00000    

 REUSING STREAM SEGMENT DATA FROM LAST STRESS PERIOD
 
 SOLVING FOR HEAD 


     6 CALLS TO PCG ROUTINE FOR TIME STEP   1 IN STRESS PERIOD   11
    22 TOTAL ITERATIONS

 OUTPUT CONTROL FOR STRESS PERIOD   11   TIME STEP    1
    SAVE BUDGET
    SAVE HEAD FOR ALL LAYERS
    PRINT HEAD FOR ALL LAYERS
 UBDSV2 SAVING "STREAMFLOW OUT  " ON UNIT  50 AT TIME STEP  1, STRESS PERIOD  11



 STREAM LISTING     PERIOD     11   STEP        1

 LAYER ROW COL. STREAM  RCH.  FLOW INTO     FLOW TO   FLOW OUT OF   OVRLND.     DIRECT     STREAM       STREAM     STREAM     STREAM   STREAMBED  STREAMBED
                SEG.NO.  NO.  STRM. RCH.    AQUIFER    STRM. RCH.    RUNOFF     PRECIP       ET          HEAD       DEPTH      WIDTH   CONDCTNC.   GRADIENT

   1   13    1     1     1    1.0000E+05 -2.5602E+04   1.2560E+05  0.000E+00  0.000E+00  0.000E+00  4.84169E+01  1.555E-01  2.000E+01  2.000E+04 -1.280E+00
   1   13    2     1     2    1.2560E+05 -3.4745E+04   1.6035E+05  0.000E+00  0.000E+00  0.000E+00  4.79633E+01  1.793E-01  2.000E+01  2.000E+04 -1.737E+00
   1   14    3     1     3    1.6035E+05 -3.0985E+04   1.9133E+05  0.000E+00  0.000E+00  0.000E+00  4.75098E+01  2.030E-01  2.000E+01  2.000E+04 -1.549E+00
   1   15    4     1     4    1.9133E+05 -3.0743E+04   2.2207E+05  0.000E+00  0.000E+00  0.000E+00  4.70532E+01  2.236E-01  2.000E+01  2.000E+04 -1.537E+00
   1   16    5     1     5    2.2207E+05 -3.2834E+04   2.5491E+05  0.000E+00  0.000E+00  0.000E+00  4.65959E+01  2.437E-01  2.000E+01  2.000E+04 -1.642E+00
   1   16    6     1     6    2.5491E+05 -2.8552E+04   2.8346E+05  0.000E+00  0.000E+00  0.000E+00  4.61370E+01  2.620E-01  2.000E+01  2.000E+04 -1.428E+00
   1   16    7     1     7    2.8346E+05 -2.8335E+04   3.1180E+05  0.000E+00  0.000E+00  0.000E+00  4.56760E+01  2.783E-01  2.000E+01  2.000E+04 -1.417E+00
   1   16    8     1     8    3.1180E+05 -2.8517E+04   3.4031E+05  0.000E+00  0.000E+00  0.000E+00  4.52144E+01  2.940E-01  2.000E+01  2.000E+04 -1.426E+00
   1   16    9     1     9    3.4031E+05 -2.8636E+04   3.6895E+05  0.000E+00  0.000E+00  0.000E+00  4.47523E+01  3.092E-01  2.000E+01  2.000E+04 -1.432E+00
   1   16   10     1    10    3.6895E+05 -2.8740E+04   3.9769E+05  0.000E+00  0.000E+00  0.000E+00  4.42898E+01  3.239E-01  2.000E+01  2.000E+04 -1.437E+00
   1   16   11     1    11    3.9769E+05 -2.9457E+04   4.2714E+05  0.000E+00  0.000E+00  0.000E+00  4.38271E+01  3.385E-01  2.000E+01  2.000E+04 -1.473E+00
   1   16   12     1    12    4.2714E+05 -3.5079E+04   4.6222E+05  0.000E+00  0.000E+00  0.000E+00  4.33655E+01  3.541E-01  2.000E+01  2.000E+04 -1.754E+00
   1   15   13     1    13    4.6222E+05 -3.3420E+04   4.9564E+05  0.000E+00  0.000E+00  0.000E+00  4.29043E+01  3.702E-01  2.000E+01  2.000E+04 -1.671E+00
   1   14   14     1    14    4.9564E+05 -3.3769E+04   5.2941E+05  0.000E+00  0.000E+00  0.000E+00  4.24424E+01  3.856E-01  2.000E+01  2.000E+04 -1.688E+00
   1   13   15     1    15    5.2941E+05 -3.5829E+04   5.6524E+05  0.000E+00  0.000E+00  0.000E+00  4.19807E+01  4.011E-01  2.000E+01  2.000E+04 -1.791E+00
   1   12   16     1    16    5.6524E+05 -4.1726E+04   6.0697E+05  0.000E+00  0.000E+00  0.000E+00  4.15202E+01  4.179E-01  2.000E+01  2.000E+04 -2.086E+00
   1   12   17     1    17    6.0697E+05 -3.2949E+04   6.3992E+05  0.000E+00  0.000E+00  0.000E+00  4.10587E+01  4.337E-01  2.000E+01  2.000E+04 -1.647E+00
   1   12   18     1    18    6.3992E+05 -3.1580E+04   6.7150E+05  0.000E+00  0.000E+00  0.000E+00  4.05948E+01  4.470E-01  2.000E+01  2.000E+04 -1.579E+00
   1   12   19     1    19    6.7150E+05 -3.5723E+04   7.0722E+05  0.000E+00  0.000E+00  0.000E+00  4.01311E+01  4.607E-01  2.000E+01  2.000E+04 -1.786E+00
   1   13   20     1    20    7.0722E+05 -2.6338E+04   7.3356E+05  0.000E+00  0.000E+00  0.000E+00  3.96662E+01  4.730E-01  2.000E+01  2.000E+04 -1.317E+00
   1   14   21     1    21    7.3356E+05 -1.9451E+04   7.5301E+05  0.000E+00  0.000E+00  0.000E+00  3.91979E+01  4.820E-01  2.000E+01  2.000E+04 -9.726E-01
   1   14   22     1    22    7.5301E+05 -1.6978E+03   7.5471E+05  0.000E+00  0.000E+00  0.000E+00  3.87247E+01  4.861E-01  2.000E+01  2.000E+04 -8.489E-02
   1    9   30     2     1    5.0000E+04 -2.6318E+04   7.6318E+04  0.000E+00  0.000E+00  0.000E+00  4.02583E+01  1.333E-01  2.000E+01  2.000E+04 -1.316E+00
   1    9   29     2     2    7.6318E+04 -2.8780E+04   1.0510E+05  0.000E+00  0.000E+00  0.000E+00  4.00406E+01  1.656E-01  2.000E+01  2.000E+04 -1.439E+00
   1    9   28     2     3    1.0510E+05 -3.3045E+04   1.3814E+05  0.000E+00  0.000E+00  0.000E+00  3.98225E+01  1.975E-01  2.000E+01  2.000E+04 -1.652E+00
   1    9   27     2     4    1.3814E+05 -4.7073E+04   1.8522E+05  0.000E+00  0.000E+00  0.000E+00  3.96093E+01  2.343E-01  2.000E+01  2.000E+04 -2.354E+00
   1   10   26     2     5    1.8522E+05 -3.3023E+04   2.1824E+05  0.000E+00  0.000E+00  0.000E+00  3.93926E+01  2.676E-01  2.000E+01  2.000E+04 -1.651E+00
   1   11   25     2     6    2.1824E+05 -2.4678E+04   2.4292E+05  0.000E+00  0.000E+00  0.000E+00  3.91649E+01  2.899E-01  2.000E+01  2.000E+04 -1.234E+00
   1   12   24     2     7    2.4292E+05 -1.8145E+04   2.6106E+05  0.000E+00  0.000E+00  0.000E+00  3.89308E+01  3.058E-01  2.000E+01  2.000E+04 -9.073E-01
   1   13   23     2     8    2.6106E+05 -1.2870E+04   2.7393E+05  0.000E+00  0.000E+00  0.000E+00  3.86919E+01  3.169E-01  2.000E+01  2.000E+04 -6.435E-01
   1   14   22     2     9    2.7393E+05 -7.2116E+03   2.8114E+05  0.000E+00  0.000E+00  0.000E+00  3.84490E+01  3.240E-01  2.000E+01  2.000E+04 -3.606E-01
   1   14   22     3     1    1.0359E+06 -1.5276E+04   1.0511E+06  0.000E+00  0.000E+00  0.000E+00  3.80458E+01  4.902E-01  2.000E+01  2.000E+04 -7.638E-01
   1   15   23     3     2    1.0511E+06 -2.3506E+04   1.0746E+06  0.000E+00  0.000E+00  0.000E+00  3.71623E+01  4.957E-01  2.000E+01  2.000E+04 -1.175E+00
   1   15   24     3     3    1.0746E+06 -1.9570E+04   1.0942E+06  0.000E+00  0.000E+00  0.000E+00  3.62794E+01  5.017E-01  2.000E+01  2.000E+04 -9.785E-01
   1   15   25     3     4    1.0942E+06 -1.9164E+04   1.1134E+06  0.000E+00  0.000E+00  0.000E+00  3.53959E+01  5.070E-01  2.000E+01  2.000E+04 -9.582E-01
   1   15   26     3     5    1.1134E+06 -2.1888E+04   1.1353E+06  0.000E+00  0.000E+00  0.000E+00  3.45127E+01  5.127E-01  2.000E+01  2.000E+04 -1.094E+00
   1   16   27     3     6    1.1353E+06 -2.9027E+04   1.1643E+06  0.000E+00  0.000E+00  0.000E+00  3.36307E+01  5.196E-01  2.000E+01  2.000E+04 -1.451E+00
   1   17   28     3     7    1.1643E+06 -3.6084E+04   1.2004E+06  0.000E+00  0.000E+00  0.000E+00  3.27506E+01  5.284E-01  2.000E+01  2.000E+04 -1.804E+00
   1   18   29     3     8    1.2004E+06 -4.7094E+04   1.2475E+06  0.000E+00  0.000E+00  0.000E+00  3.18728E+01  5.394E-01  2.000E+01  2.000E+04 -2.355E+00
   1   18   30     3     9    1.2475E+06 -4.3552E+04   1.2910E+06  0.000E+00  0.000E+00  0.000E+00  3.09958E+01  5.513E-01  2.000E+01  2.000E+04 -2.178E+00



1
              HEAD IN LAYER   1 AT END OF TIME STEP   1 IN STRESS PERIOD   11
  ---------------------------------------------------------------------------

          1      2      3      4      5      6      7      8      9     10
         11     12     13     14     15     16     17     18     19     20
         21     22     23     24     25     26     27     28     29     30
 .........................................................................
   1  ****** ****** ****** ****** ****** ****** ****** ****** ****** ******
      ****** ****** ****** ****** ****** ****** ****** ****** ****** ******
      ****** ****** ****** ****** ****** ****** ****** ****** ****** ******
   2  ****** ****** ****** ****** ****** ****** ****** ****** ****** ******
      ****** ****** ****** ****** ****** ****** ****** ****** ****** ******
      ****** ****** ****** ****** ****** ****** ****** ****** ****** ******
   3  ****** ****** ****** ****** ****** ****** ****** ****** ****** ******
      ****** ****** ****** ****** ****** ****** ****** ****** ****** ******
      ****** ****** ****** ****** ****** ****** ****** ****** ****** ******
   4  ****** ****** ****** ****** ****** ****** ****** ****** ****** ******
      ****** ****** ****** ****** ****** ****** ****** ****** ****** ******
      ****** ****** ****** ****** ****** ****** ****** ****** ****** ******
   5  ****** ****** ****** ****** ****** ****** ****** ****** ****** ******
      ****** ****** ****** ****** ****** ****** ****** ****** ****** ******
      ****** ****** ****** ****** ****** ****** ****** ****** ****** ******
   6  ****** ****** ****** ****** ****** ****** ****** ****** ****** ******
      ****** ****** ****** ****** ****** ****** ****** ****** ****** ******
      ****** ****** ****** ****** ****** ****** ****** ****** ****** ******
   7  ****** ****** ****** ****** ****** ****** ****** ****** ****** ******
      ****** ****** ****** ****** ****** ****** ****** ****** ****** ******
      ****** ****** ****** ****** ****** ****** ****** ****** ****** ******
   8  ****** ****** ****** ****** ****** ****** ****** ****** ****** ******
      ****** ****** ****** ****** ****** ****** ****** ****** ****** ******
      ****** ****** ****** ****** ****** ****** ****** ****** ****** ******
   9  ****** ****** ****** ****** ****** ****** ****** ****** ****** ******
      ****** ****** ****** ****** ****** ****** ****** ****** ****** ******
      ****** ****** ****** ****** ****** ****** ****** ****** ****** ******
  10  ****** ****** ****** ****** ****** ****** ****** ****** ****** ******
      ****** ****** ****** ****** ****** ****** ****** ****** ****** ******
      ****** ****** ****** ****** ****** ****** ****** ****** ****** ******
  11  ****** ****** ****** ****** ****** ****** ****** ****** ****** ******
      ****** ****** ****** ****** ****** ****** ****** ****** ****** ******
      ****** ****** ****** ****** ****** ****** ****** ****** ****** ******
  12  ****** ****** ****** ****** ****** ****** ****** ****** ****** ******
      ****** ****** ****** ****** ****** ****** ****** ****** ****** ******
      ****** ****** ****** ****** ****** ****** ****** ****** ****** ******
  13  ****** ****** ****** ****** ****** ****** ****** ****** ****** ******
      ****** ****** ****** ****** ****** ****** ****** ****** ****** ******
      ****** ****** ****** ****** ****** ****** ****** ****** ****** ******
  14  ****** ****** ****** ****** ****** ****** ****** ****** ****** ******
      ****** ****** ****** ****** ****** ****** ****** ****** ****** ******
      ****** ****** ****** ****** ****** ****** ****** ****** ****** ******
  15  ****** ****** ****** ****** ****** ****** ****** ****** ****** ******
      ****** ****** ****** ****** ****** ****** ****** ****** ****** ******
      ****** ****** ****** ****** ****** ****** ****** ****** ****** ******
  16  ****** ****** ****** ****** ****** ****** ****** ****** ****** ******
      ****** ****** ****** ****** ****** ****** ****** ****** ****** ******
      ****** ****** ****** ****** ****** ****** ****** ****** ****** ******
  17  ****** ****** ****** ****** ****** ****** ****** ****** ****** ******
      ****** ****** ****** ****** ****** ****** ****** ****** ****** ******
      ****** ****** ****** ****** ****** ****** ****** ****** ****** ******
  18  ****** ****** ****** ****** ****** ****** ****** ****** ****** ******
      ****** ****** ****** ****** ****** ****** ****** ****** ****** ******
      ****** ****** ****** ****** ****** ****** ****** ****** ****** ******
  19  ****** ****** ****** ****** ****** ****** ****** ****** ****** ******
      ****** ****** ****** ****** ****** ****** ****** ****** ****** ******
      ****** ****** ****** ****** ****** ****** ****** ****** ****** ******
  20  ****** ****** ****** ****** ****** ****** ****** ****** ****** ******
      ****** ****** ****** ****** ****** ****** ****** ****** ****** ******
      ****** ****** ****** ****** ****** ****** ****** ****** ****** ******
  21  ****** ****** ****** ****** ****** ****** ****** ****** ****** ******
      ****** ****** ****** ****** ****** ****** ****** ****** ****** ******
      ****** ****** ****** ****** ****** ****** ****** ****** ****** ******
  22  ****** ****** ****** ****** ****** ****** ****** ****** ****** ******
      ****** ****** ****** ****** ****** ****** ****** ****** ****** ******
      ****** ****** ****** ****** ****** ****** ****** ****** ****** ******
  23  ****** ****** ****** ****** ****** ****** ****** ****** ****** ******
      ****** ****** ****** ****** ****** ****** ****** ****** ****** ******
      ****** ****** ****** ****** ****** ****** ****** ****** ****** ******
  24  ****** ****** ****** ****** ****** ****** ****** ****** ****** ******
      ****** ****** ****** ****** ****** ****** ****** ****** ****** ******
      ****** ****** ****** ****** ****** ****** ****** ****** ****** ******
  25  ****** ****** ****** ****** ****** ****** ****** ****** ****** ******
      ****** ****** ****** ****** ****** ****** ****** ****** ****** ******
      ****** ****** ****** ****** ****** ****** ****** ****** ****** ******

 HEAD WILL BE SAVED ON UNIT   51 AT END OF TIME STEP    1, STRESS PERIOD   11
1
  VOLUMETRIC BUDGET FOR ENTIRE MODEL AT END OF TIME STEP    1, STRESS PERIOD  11
  ------------------------------------------------------------------------------

     CUMULATIVE VOLUMES      L**3       RATES FOR THIS TIME STEP      L**3/T
     ------------------                 ------------------------

           IN:                                      IN:
           ---                                      ---
             STORAGE =    21119731.2495               STORAGE =        2516.4651
       CONSTANT HEAD =  1256807535.6401         CONSTANT HEAD =     1255133.6225
               WELLS =           0.0000                 WELLS =           0.0000
            RECHARGE =    23901600.0000              RECHARGE =           0.0000
      STREAM LEAKAGE =           0.0000        STREAM LEAKAGE =           0.0000

            TOTAL IN =  1301828866.8896              TOTAL IN =     1257650.0876

          OUT:                                     OUT:
          ----                                     ----
             STORAGE =      739419.9364               STORAGE =           0.0000
       CONSTANT HEAD =           0.0000         CONSTANT HEAD =           0.0000
               WELLS =   136755820.8090                 WELLS =      116634.6706
            RECHARGE =           0.0000              RECHARGE =           0.0000
      STREAM LEAKAGE =  1164333632.4629        STREAM LEAKAGE =     1141015.4621

           TOTAL OUT =  1301828873.2083             TOTAL OUT =     1257650.1327

            IN - OUT =          -6.3187              IN - OUT =      -4.5151E-02

 PERCENT DISCREPANCY =          -0.00     PERCENT DISCREPANCY =          -0.00






         TIME SUMMARY AT END OF TIME STEP    1 IN STRESS PERIOD   11
                    SECONDS     MINUTES      HOURS       DAYS        YEARS
                    -----------------------------------------------------------
   TIME STEP LENGTH 7.86240E+06 1.31040E+05  2184.0      91.000     0.24914    
 STRESS PERIOD TIME 7.86240E+06 1.31040E+05  2184.0      91.000     0.24914    
         TOTAL TIME 8.67456E+07 1.44576E+06  24096.      1004.0      2.7488    
1
1
                            STRESS PERIOD NO.   12, LENGTH =   91.00000    
                            -----------------------------------------------

                              NUMBER OF TIME STEPS =     1

                               MULTIPLIER FOR DELT =     1.500

                            INITIAL TIME STEP SIZE =   91.00000    

 WELL NO.  LAYER   ROW   COL   STRESS RATE         
 --------------------------------------------------
      1      1      4      5     -0.5000E+05
      2      1      2     11     -0.5000E+05
      3      1      6     11     -0.1663E+05

      3 WELLS

                 RECHARGE =  1.000000E-03

 REUSING STREAM SEGMENT DATA FROM LAST STRESS PERIOD
 
 SOLVING FOR HEAD 


     6 CALLS TO PCG ROUTINE FOR TIME STEP   1 IN STRESS PERIOD   12
    22 TOTAL ITERATIONS

 OUTPUT CONTROL FOR STRESS PERIOD   12   TIME STEP    1
    SAVE BUDGET
    SAVE HEAD FOR ALL LAYERS
    PRINT HEAD FOR ALL LAYERS
 UBDSV2 SAVING "STREAMFLOW OUT  " ON UNIT  50 AT TIME STEP  1, STRESS PERIOD  12



 STREAM LISTING     PERIOD     12   STEP        1

 LAYER ROW COL. STREAM  RCH.  FLOW INTO     FLOW TO   FLOW OUT OF   OVRLND.     DIRECT     STREAM       STREAM     STREAM     STREAM   STREAMBED  STREAMBED
                SEG.NO.  NO.  STRM. RCH.    AQUIFER    STRM. RCH.    RUNOFF     PRECIP       ET          HEAD       DEPTH      WIDTH   CONDCTNC.   GRADIENT

   1   13    1     1     1    1.0000E+05 -2.5995E+04   1.2600E+05  0.000E+00  0.000E+00  0.000E+00  4.84170E+01  1.557E-01  2.000E+01  2.000E+04 -1.300E+00
   1   13    2     1     2    1.2600E+05 -3.5212E+04   1.6121E+05  0.000E+00  0.000E+00  0.000E+00  4.79638E+01  1.797E-01  2.000E+01  2.000E+04 -1.761E+00
   1   14    3     1     3    1.6121E+05 -3.1446E+04   1.9265E+05  0.000E+00  0.000E+00  0.000E+00  4.75105E+01  2.037E-01  2.000E+01  2.000E+04 -1.572E+00
   1   15    4     1     4    1.9265E+05 -3.1189E+04   2.2384E+05  0.000E+00  0.000E+00  0.000E+00  4.70542E+01  2.246E-01  2.000E+01  2.000E+04 -1.559E+00
   1   16    5     1     5    2.2384E+05 -3.3240E+04   2.5708E+05  0.000E+00  0.000E+00  0.000E+00  4.65972E+01  2.449E-01  2.000E+01  2.000E+04 -1.662E+00
   1   16    6     1     6    2.5708E+05 -2.8904E+04   2.8599E+05  0.000E+00  0.000E+00  0.000E+00  4.61384E+01  2.634E-01  2.000E+01  2.000E+04 -1.445E+00
   1   16    7     1     7    2.8599E+05 -2.8683E+04   3.1467E+05  0.000E+00  0.000E+00  0.000E+00  4.56775E+01  2.798E-01  2.000E+01  2.000E+04 -1.434E+00
   1   16    8     1     8    3.1467E+05 -2.8866E+04   3.4353E+05  0.000E+00  0.000E+00  0.000E+00  4.52161E+01  2.956E-01  2.000E+01  2.000E+04 -1.443E+00
   1   16    9     1     9    3.4353E+05 -2.8985E+04   3.7252E+05  0.000E+00  0.000E+00  0.000E+00  4.47541E+01  3.109E-01  2.000E+01  2.000E+04 -1.449E+00
   1   16   10     1    10    3.7252E+05 -2.9088E+04   4.0161E+05  0.000E+00  0.000E+00  0.000E+00  4.42917E+01  3.258E-01  2.000E+01  2.000E+04 -1.454E+00
   1   16   11     1    11    4.0161E+05 -2.9810E+04   4.3142E+05  0.000E+00  0.000E+00  0.000E+00  4.38291E+01  3.405E-01  2.000E+01  2.000E+04 -1.490E+00
   1   16   12     1    12    4.3142E+05 -3.5491E+04   4.6691E+05  0.000E+00  0.000E+00  0.000E+00  4.33676E+01  3.563E-01  2.000E+01  2.000E+04 -1.775E+00
   1   15   13     1    13    4.6691E+05 -3.3873E+04   5.0078E+05  0.000E+00  0.000E+00  0.000E+00  4.29066E+01  3.725E-01  2.000E+01  2.000E+04 -1.694E+00
   1   14   14     1    14    5.0078E+05 -3.4235E+04   5.3501E+05  0.000E+00  0.000E+00  0.000E+00  4.24449E+01  3.880E-01  2.000E+01  2.000E+04 -1.712E+00
   1   13   15     1    15    5.3501E+05 -3.6291E+04   5.7131E+05  0.000E+00  0.000E+00  0.000E+00  4.19832E+01  4.037E-01  2.000E+01  2.000E+04 -1.815E+00
   1   12   16     1    16    5.7131E+05 -4.2170E+04   6.1348E+05  0.000E+00  0.000E+00  0.000E+00  4.15229E+01  4.206E-01  2.000E+01  2.000E+04 -2.109E+00
   1   12   17     1    17    6.1348E+05 -3.3310E+04   6.4679E+05  0.000E+00  0.000E+00  0.000E+00  4.10615E+01  4.365E-01  2.000E+01  2.000E+04 -1.665E+00
   1   12   18     1    18    6.4679E+05 -3.1926E+04   6.7871E+05  0.000E+00  0.000E+00  0.000E+00  4.05976E+01  4.499E-01  2.000E+01  2.000E+04 -1.596E+00
   1   12   19     1    19    6.7871E+05 -3.6101E+04   7.1481E+05  0.000E+00  0.000E+00  0.000E+00  4.01341E+01  4.636E-01  2.000E+01  2.000E+04 -1.805E+00
   1   13   20     1    20    7.1481E+05 -2.6696E+04   7.4151E+05  0.000E+00  0.000E+00  0.000E+00  3.96692E+01  4.761E-01  2.000E+01  2.000E+04 -1.335E+00
   1   14   21     1    21    7.4151E+05 -1.9759E+04   7.6127E+05  0.000E+00  0.000E+00  0.000E+00  3.92010E+01  4.851E-01  2.000E+01  2.000E+04 -9.880E-01
   1   14   22     1    22    7.6127E+05 -1.8074E+03   7.6308E+05  0.000E+00  0.000E+00  0.000E+00  3.87279E+01  4.893E-01  2.000E+01  2.000E+04 -9.037E-02
   1    9   30     2     1    5.0000E+04 -2.6599E+04   7.6599E+04  0.000E+00  0.000E+00  0.000E+00  4.02585E+01  1.335E-01  2.000E+01  2.000E+04 -1.330E+00
   1    9   29     2     2    7.6599E+04 -2.9061E+04   1.0566E+05  0.000E+00  0.000E+00  0.000E+00  4.00411E+01  1.661E-01  2.000E+01  2.000E+04 -1.453E+00
   1    9   28     2     3    1.0566E+05 -3.3335E+04   1.3899E+05  0.000E+00  0.000E+00  0.000E+00  3.98232E+01  1.982E-01  2.000E+01  2.000E+04 -1.667E+00
   1    9   27     2     4    1.3899E+05 -4.7426E+04   1.8642E+05  0.000E+00  0.000E+00  0.000E+00  3.96102E+01  2.352E-01  2.000E+01  2.000E+04 -2.371E+00
   1   10   26     2     5    1.8642E+05 -3.3390E+04   2.1981E+05  0.000E+00  0.000E+00  0.000E+00  3.93937E+01  2.687E-01  2.000E+01  2.000E+04 -1.670E+00
   1   11   25     2     6    2.1981E+05 -2.5032E+04   2.4484E+05  0.000E+00  0.000E+00  0.000E+00  3.91662E+01  2.912E-01  2.000E+01  2.000E+04 -1.252E+00
   1   12   24     2     7    2.4484E+05 -1.8462E+04   2.6331E+05  0.000E+00  0.000E+00  0.000E+00  3.89323E+01  3.073E-01  2.000E+01  2.000E+04 -9.231E-01
   1   13   23     2     8    2.6331E+05 -1.3128E+04   2.7643E+05  0.000E+00  0.000E+00  0.000E+00  3.86936E+01  3.186E-01  2.000E+01  2.000E+04 -6.564E-01
   1   14   22     2     9    2.7643E+05 -7.3495E+03   2.8378E+05  0.000E+00  0.000E+00  0.000E+00  3.84508E+01  3.258E-01  2.000E+01  2.000E+04 -3.675E-01
   1   14   22     3     1    1.0469E+06 -1.5388E+04   1.0622E+06  0.000E+00  0.000E+00  0.000E+00  3.80489E+01  4.933E-01  2.000E+01  2.000E+04 -7.694E-01
   1   15   23     3     2    1.0622E+06 -2.3794E+04   1.0860E+06  0.000E+00  0.000E+00  0.000E+00  3.71655E+01  4.988E-01  2.000E+01  2.000E+04 -1.190E+00
   1   15   24     3     3    1.0860E+06 -1.9810E+04   1.1058E+06  0.000E+00  0.000E+00  0.000E+00  3.62826E+01  5.049E-01  2.000E+01  2.000E+04 -9.905E-01
   1   15   25     3     4    1.1058E+06 -1.9404E+04   1.1253E+06  0.000E+00  0.000E+00  0.000E+00  3.53992E+01  5.103E-01  2.000E+01  2.000E+04 -9.702E-01
   1   15   26     3     5    1.1253E+06 -2.2168E+04   1.1474E+06  0.000E+00  0.000E+00  0.000E+00  3.45159E+01  5.159E-01  2.000E+01  2.000E+04 -1.108E+00
   1   16   27     3     6    1.1474E+06 -2.9364E+04   1.1768E+06  0.000E+00  0.000E+00  0.000E+00  3.36340E+01  5.229E-01  2.000E+01  2.000E+04 -1.468E+00
   1   17   28     3     7    1.1768E+06 -3.6429E+04   1.2132E+06  0.000E+00  0.000E+00  0.000E+00  3.27540E+01  5.318E-01  2.000E+01  2.000E+04 -1.821E+00
   1   18   29     3     8    1.2132E+06 -4.7417E+04   1.2606E+06  0.000E+00  0.000E+00  0.000E+00  3.18762E+01  5.429E-01  2.000E+01  2.000E+04 -2.371E+00
   1   18   30     3     9    1.2606E+06 -4.3822E+04   1.3045E+06  0.000E+00  0.000E+00  0.000E+00  3.09993E+01  5.548E-01  2.000E+01  2.000E+04 -2.191E+00



1
              HEAD IN LAYER   1 AT END OF TIME STEP   1 IN STRESS PERIOD   12
  ---------------------------------------------------------------------------

          1      2      3      4      5      6      7      8      9     10
         11     12     13     14     15     16     17     18     19     20
         21     22     23     24     25     26     27     28     29     30
 .........................................................................
   1  ****** ****** ****** ****** ****** ****** ****** ****** ****** ******
      ****** ****** ****** ****** ****** ****** ****** ****** ****** ******
      ****** ****** ****** ****** ****** ****** ****** ****** ****** ******
   2  ****** ****** ****** ****** ****** ****** ****** ****** ****** ******
      ****** ****** ****** ****** ****** ****** ****** ****** ****** ******
      ****** ****** ****** ****** ****** ****** ****** ****** ****** ******
   3  ****** ****** ****** ****** ****** ****** ****** ****** ****** ******
      ****** ****** ****** ****** ****** ****** ****** ****** ****** ******
      ****** ****** ****** ****** ****** ****** ****** ****** ****** ******
   4  ****** ****** ****** ****** ****** ****** ****** ****** ****** ******
      ****** ****** ****** ****** ****** ****** ****** ****** ****** ******
      ****** ****** ****** ****** ****** ****** ****** ****** ****** ******
   5  ****** ****** ****** ****** ****** ****** ****** ****** ****** ******
      ****** ****** ****** ****** ****** ****** ****** ****** ****** ******
      ****** ****** ****** ****** ****** ****** ****** ****** ****** ******
   6  ****** ****** ****** ****** ****** ****** ****** ****** ****** ******
      ****** ****** ****** ****** ****** ****** ****** ****** ****** ******
      ****** ****** ****** ****** ****** ****** ****** ****** ****** ******
   7  ****** ****** ****** ****** ****** ****** ****** ****** ****** ******
      ****** ****** ****** ****** ****** ****** ****** ****** ****** ******
      ****** ****** ****** ****** ****** ****** ****** ****** ****** ******
   8  ****** ****** ****** ****** ****** ****** ****** ****** ****** ******
      ****** ****** ****** ****** ****** ****** ****** ****** ****** ******
      ****** ****** ****** ****** ****** ****** ****** ****** ****** ******
   9  ****** ****** ****** ****** ****** ****** ****** ****** ****** ******
      ****** ****** ****** ****** ****** ****** ****** ****** ****** ******
      ****** ****** ****** ****** ****** ****** ****** ****** ****** ******
  10  ****** ****** ****** ****** ****** ****** ****** ****** ****** ******
      ****** ****** ****** ****** ****** ****** ****** ****** ****** ******
      ****** ****** ****** ****** ****** ****** ****** ****** ****** ******
  11  ****** ****** ****** ****** ****** ****** ****** ****** ****** ******
      ****** ****** ****** ****** ****** ****** ****** ****** ****** ******
      ****** ****** ****** ****** ****** ****** ****** ****** ****** ******
  12  ****** ****** ****** ****** ****** ****** ****** ****** ****** ******
      ****** ****** ****** ****** ****** ****** ****** ****** ****** ******
      ****** ****** ****** ****** ****** ****** ****** ****** ****** ******
  13  ****** ****** ****** ****** ****** ****** ****** ****** ****** ******
      ****** ****** ****** ****** ****** ****** ****** ****** ****** ******
      ****** ****** ****** ****** ****** ****** ****** ****** ****** ******
  14  ****** ****** ****** ****** ****** ****** ****** ****** ****** ******
      ****** ****** ****** ****** ****** ****** ****** ****** ****** ******
      ****** ****** ****** ****** ****** ****** ****** ****** ****** ******
  15  ****** ****** ****** ****** ****** ****** ****** ****** ****** ******
      ****** ****** ****** ****** ****** ****** ****** ****** ****** ******
      ****** ****** ****** ****** ****** ****** ****** ****** ****** ******
  16  ****** ****** ****** ****** ****** ****** ****** ****** ****** ******
      ****** ****** ****** ****** ****** ****** ****** ****** ****** ******
      ****** ****** ****** ****** ****** ****** ****** ****** ****** ******
  17  ****** ****** ****** ****** ****** ****** ****** ****** ****** ******
      ****** ****** ****** ****** ****** ****** ****** ****** ****** ******
      ****** ****** ****** ****** ****** ****** ****** ****** ****** ******
  18  ****** ****** ****** ****** ****** ****** ****** ****** ****** ******
      ****** ****** ****** ****** ****** ****** ****** ****** ****** ******
      ****** ****** ****** ****** ****** ****** ****** ****** ****** ******
  19  ****** ****** ****** ****** ****** ****** ****** ****** ****** ******
      ****** ****** ****** ****** ****** ****** ****** ****** ****** ******
      ****** ****** ****** ****** ****** ****** ****** ****** ****** ******
  20  ****** ****** ****** ****** ****** ****** ****** ****** ****** ******
      ****** ****** ****** ****** ****** ****** ****** ****** ****** ******
      ****** ****** ****** ****** ****** ****** ****** ****** ****** ******
  21  ****** ****** ****** ****** ****** ****** ****** ****** ****** ******
      ****** ****** ****** ****** ****** ****** ****** ****** ****** ******
      ****** ****** ****** ****** ****** ****** ****** ****** ****** ******
  22  ****** ****** ****** ****** ****** ****** ****** ****** ****** ******
      ****** ****** ****** ****** ****** ****** ****** ****** ****** ******
      ****** ****** ****** ****** ****** ****** ****** ****** ****** ******
  23  ****** ****** ****** ****** ****** ****** ****** ****** ****** ******
      ****** ****** ****** ****** ****** ****** ****** ****** ****** ******
      ****** ****** ****** ****** ****** ****** ****** ****** ****** ******
  24  ****** ****** ****** ****** ****** ****** ****** ****** ****** ******
      ****** ****** ****** ****** ****** ****** ****** ****** ****** ******
      ****** ****** ****** ****** ****** ****** ****** ****** ****** ******
  25  ****** ****** ****** ****** ****** ****** ****** ****** ****** ******
      ****** ****** ****** ****** ****** ****** ****** ****** ****** ******
      ****** ****** ****** ****** ****** ****** ****** ****** ****** ******

 HEAD WILL BE SAVED ON UNIT   51 AT END OF TIME STEP    1, STRESS PERIOD   12
1
  VOLUMETRIC BUDGET FOR ENTIRE MODEL AT END OF TIME STEP    1, STRESS PERIOD  12
  ------------------------------------------------------------------------------

     CUMULATIVE VOLUMES      L**3       RATES FOR THIS TIME STEP      L**3/T
     ------------------                 ------------------------

           IN:                                      IN:
           ---                                      ---
             STORAGE =    21119731.2495               STORAGE =           0.0000
       CONSTANT HEAD =  1370071312.3079         CONSTANT HEAD =     1244656.8865
               WELLS =           0.0000                 WELLS =           0.0000
            RECHARGE =    26413200.0000              RECHARGE =       27600.0000
      STREAM LEAKAGE =           0.0000        STREAM LEAKAGE =           0.0000

            TOTAL IN =  1417604243.5575              TOTAL IN =     1272256.8865

          OUT:                                     OUT:
          ----                                     ----
             STORAGE =      845769.4049               STORAGE =        1168.6755
       CONSTANT HEAD =           0.0000         CONSTANT HEAD =           0.0000
               WELLS =   147369575.8366                 WELLS =      116634.6706
            RECHARGE =           0.0000              RECHARGE =           0.0000
      STREAM LEAKAGE =  1269388902.7386        STREAM LEAKAGE =     1154453.5195

           TOTAL OUT =  1417604247.9801             TOTAL OUT =     1272256.8656

            IN - OUT =          -4.4227              IN - OUT =       2.0835E-02

 PERCENT DISCREPANCY =          -0.00     PERCENT DISCREPANCY =           0.00






         TIME SUMMARY AT END OF TIME STEP    1 IN STRESS PERIOD   12
                    SECONDS     MINUTES      HOURS       DAYS        YEARS
                    -----------------------------------------------------------
   TIME STEP LENGTH 7.86240E+06 1.31040E+05  2184.0      91.000     0.24914    
 STRESS PERIOD TIME 7.86240E+06 1.31040E+05  2184.0      91.000     0.24914    
         TOTAL TIME 9.46080E+07 1.57680E+06  26280.      1095.0      2.9979    
1

 Run end date and time (yyyy/mm/dd hh:mm:ss): 2018/10/02 17:41:20
 Elapsed run time:  0.062 Seconds

