                                  MODFLOW-2005     
      U.S. GEOLOGICAL SURVEY MODULAR FINITE-DIFFERENCE GROUND-WATER FLOW MODEL
                            VERSION 1.11.00 8/8/2013

 LIST FILE: supply2.lst
                         UNIT   10

 OPENING ..\data\supply.dis
 FILE TYPE:DIS   UNIT   11   STATUS:OLD    
 FORMAT:FORMATTED              ACCESS:SEQUENTIAL          

 OPENING ..\data\supply.ba6
 FILE TYPE:BAS6   UNIT   12   STATUS:OLD    
 FORMAT:FORMATTED              ACCESS:SEQUENTIAL          

 OPENING ..\data\supply_het.bc6
 FILE TYPE:BCF6   UNIT   13   STATUS:OLD    
 FORMAT:FORMATTED              ACCESS:SEQUENTIAL          

 OPENING ..\data\supply.rch
 FILE TYPE:RCH   UNIT   15   STATUS:OLD    
 FORMAT:FORMATTED              ACCESS:SEQUENTIAL          

 OPENING ..\data\supply2.sfr
 FILE TYPE:SFR   UNIT   16   STATUS:OLD    
 FORMAT:FORMATTED              ACCESS:SEQUENTIAL          

 OPENING ..\data\supply.oc
 FILE TYPE:OC   UNIT   17   STATUS:OLD    
 FORMAT:FORMATTED              ACCESS:SEQUENTIAL          

 OPENING ..\data\supply.pcg
 FILE TYPE:PCG   UNIT   18   STATUS:OLD    
 FORMAT:FORMATTED              ACCESS:SEQUENTIAL          

 OPENING supply2.wel
 FILE TYPE:WEL   UNIT   19   STATUS:OLD    
 FORMAT:FORMATTED              ACCESS:SEQUENTIAL          

 OPENING supply2sf.cbc
 FILE TYPE:DATA(BINARY)   UNIT   50   STATUS:UNKNOWN
 FORMAT:BINARY                 ACCESS:SEQUENTIAL          

 OPENING supply2hd.bhd
 FILE TYPE:DATA(BINARY)   UNIT   51   STATUS:UNKNOWN
 FORMAT:BINARY                 ACCESS:SEQUENTIAL          

 BAS -- BASIC PACKAGE, VERSION 7, 5/2/2005 INPUT READ FROM UNIT   12
 
 MODFLOW was compiled using uniform precision
 Precision of REAL and DOUBLE PRECISION variables:          15

 DISCRETIZATION INPUT DATA READ FROM UNIT   11
    1 LAYERS        25 ROWS        30 COLUMNS
   12 STRESS PERIOD(S) IN SIMULATION
 MODEL TIME UNIT IS DAYS
 MODEL LENGTH UNIT IS UNDEFINED
  Confining bed flag for each layer:
   0

                     DELR =   200.000    

                     DELC =   200.000    

 TOP ELEVATION OF LAYER 1 =  100.0000    

   MODEL LAYER BOTTOM EL. =   0.00000     FOR LAYER   1


 STRESS PERIOD     LENGTH       TIME STEPS     MULTIPLIER FOR DELT    SS FLAG
 ----------------------------------------------------------------------------
        1         92.00000          1                    1.500         TR
        2         91.00000          1                    1.500         TR
        3         91.00000          1                    1.500         TR
        4         91.00000          1                    1.500         TR
        5         92.00000          1                    1.500         TR
        6         91.00000          1                    1.500         TR
        7         91.00000          1                    1.500         TR
        8         91.00000          1                    1.500         TR
        9         92.00000          1                    1.500         TR
       10         91.00000          1                    1.500         TR
       11         91.00000          1                    1.500         TR
       12         91.00000          1                    1.500         TR

 TRANSIENT SIMULATION



 
 #MODOFC transient water supply sample problem                                   
 #                                                                               
 THE FREE FORMAT OPTION HAS BEEN SELECTED



                     BOUNDARY ARRAY FOR LAYER   1
 READING ON UNIT   12 WITH FORMAT: (20I4)              

 AQUIFER HEAD WILL BE SET TO   0.0000     AT ALL NO-FLOW NODES (IBOUND=0).



                       INITIAL HEAD FOR LAYER   1
 READING ON UNIT   12 WITH FORMAT: (10F13.0)           

 OUTPUT CONTROL IS SPECIFIED ONLY AT TIME STEPS FOR WHICH OUTPUT IS DESIRED
 COMPACT CELL-BY-CELL BUDGET FILES WILL BE WRITTEN
 HEAD PRINT FORMAT CODE IS  18    DRAWDOWN PRINT FORMAT CODE IS   0
 HEADS WILL BE SAVED ON UNIT   51    DRAWDOWNS WILL BE SAVED ON UNIT    0

 BCF -- BLOCK-CENTERED FLOW PACKAGE, VERSION 7, 5/2/2005
         INPUT READ FROM UNIT 13
 TRANSIENT SIMULATION
 HEAD AT CELLS THAT CONVERT TO DRY=   0.0000    
 WETTING CAPABILITY IS NOT ACTIVE
      LAYER  LAYER-TYPE CODE     INTERBLOCK T
      --------------------------------------------
         1            0          0 -- HARMONIC    

 COLUMN TO ROW ANISOTROPY =  1.000000    

     PRIMARY STORAGE COEF =  5.000000E-02 FOR LAYER   1



               TRANSMIS. ALONG ROWS FOR LAYER   1
 READING ON UNIT   13 WITH FORMAT: (FREE)              

 WEL -- WELL PACKAGE, VERSION 7, 5/2/2005 INPUT READ FROM UNIT   19
 # Well package input file written by MMProc
 No named parameters
 MAXIMUM OF      4 ACTIVE WELLS AT ONE TIME


     0 Well parameters

 RCH -- RECHARGE PACKAGE, VERSION 7, 5/2/2005 INPUT READ FROM UNIT   15
 No named parameters
 OPTION 1 -- RECHARGE TO TOP LAYER


     0 Recharge parameters

 SFR7 -- STREAMFLOW ROUTING PACKAGE, VERSION 1.0.7, 2013-01-15
         INPUT READ FROM UNIT  16
 #  Supply2 test problem for GWM-VI
 #  The eighth entry in the first data line is ISTCB2 -
 #    Setting this to a negative number indicates that
 #    streamflows out of the reach will be saved to a
 #    binary file.  The absolute value of ISTCB2 is the
 #    unit to which unformatted flows will be written.
 #
 No named parameters
 Segment information will not be 
 read by reach
 No named parameters
 No specifed inflow files


 NUMBER OF STREAM REACHES IS   40

 NUMBER OF STREAM SEGMENTS IS    3

 NUMBER OF STREAM PARAMETERS IS    0

 NUMBER OF STREAM SEGMENTS DEFINED USING PARAMETERS IS              0

 MAXIMUM ERROR FOR STREAM LEAKAGE RATES IS  1.00E-04

 CONSTANT FOR MANNINGS EQUATION IS  1.2839E+05





   STREAM NETWORK DESCRIPTION: 

   LAYER    ROW    COL   SEGMENT   REACH     LENGTH
                          NUMBER   NUMBER    IN CELL        
   --------------------------------------------------
      1     13      1       1        1    2.0000E+02
      1     13      2       1        2    2.0000E+02
      1     14      3       1        3    2.0000E+02
      1     15      4       1        4    2.0000E+02
      1     16      5       1        5    2.0000E+02
      1     16      6       1        6    2.0000E+02
      1     16      7       1        7    2.0000E+02
      1     16      8       1        8    2.0000E+02
      1     16      9       1        9    2.0000E+02
      1     16     10       1       10    2.0000E+02
      1     16     11       1       11    2.0000E+02
      1     16     12       1       12    2.0000E+02
      1     15     13       1       13    2.0000E+02
      1     14     14       1       14    2.0000E+02
      1     13     15       1       15    2.0000E+02
      1     12     16       1       16    2.0000E+02
      1     12     17       1       17    2.0000E+02
      1     12     18       1       18    2.0000E+02
      1     12     19       1       19    2.0000E+02
      1     13     20       1       20    2.0000E+02
      1     14     21       1       21    2.0000E+02
      1     14     22       1       22    2.0000E+02
      1      9     30       2        1    2.0000E+02
      1      9     29       2        2    2.0000E+02
      1      9     28       2        3    2.0000E+02
      1      9     27       2        4    2.0000E+02
      1     10     26       2        5    2.0000E+02
      1     11     25       2        6    2.0000E+02
      1     12     24       2        7    2.0000E+02
      1     13     23       2        8    2.0000E+02
      1     14     22       2        9    2.0000E+02
      1     14     22       3        1    2.0000E+02
      1     15     23       3        2    2.0000E+02
      1     15     24       3        3    2.0000E+02
      1     15     25       3        4    2.0000E+02
      1     15     26       3        5    2.0000E+02
      1     16     27       3        6    2.0000E+02
      1     17     28       3        7    2.0000E+02
      1     18     29       3        8    2.0000E+02
      1     18     30       3        9    2.0000E+02




 PCG -- CONJUGATE-GRADIENT SOLUTION PACKAGE, VERSION 7, 5/2/2005
 MAXIMUM OF    500 CALLS OF SOLUTION ROUTINE
 MAXIMUM OF      5 INTERNAL ITERATIONS PER CALL TO SOLUTION ROUTINE
 MATRIX PRECONDITIONING TYPE :    1



                                    SOLUTION BY THE CONJUGATE-GRADIENT METHOD
                                   -------------------------------------------
                    MAXIMUM NUMBER OF CALLS TO PCG ROUTINE =      500
                        MAXIMUM ITERATIONS PER CALL TO PCG =        5
                               MATRIX PRECONDITIONING TYPE =        1
        RELAXATION FACTOR (ONLY USED WITH PRECOND. TYPE 1) =    0.10000E+01
 PARAMETER OF POLYNOMIAL PRECOND. = 2 (2) OR IS CALCULATED :        0
                         HEAD CHANGE CRITERION FOR CLOSURE =    0.10000E-05
                     RESIDUAL CHANGE CRITERION FOR CLOSURE =    0.10000E+01
            PCG HEAD AND RESIDUAL CHANGE PRINTOUT INTERVAL =        1
     PRINTING FROM SOLVER IS LIMITED(1) OR SUPPRESSED (>1) =        1
                            STEADY-STATE DAMPING PARAMETER =    0.10000E+01
                               TRANSIENT DAMPING PARAMETER =    0.10000E+01
1
                            STRESS PERIOD NO.    1, LENGTH =   92.00000    
                            -----------------------------------------------

                              NUMBER OF TIME STEPS =     1

                               MULTIPLIER FOR DELT =     1.500

                            INITIAL TIME STEP SIZE =   92.00000    

 WELL NO.  LAYER   ROW   COL   STRESS RATE         
 --------------------------------------------------
      1      1      8     21      -8122.    
      2      1      4     14      -6617.    
      3      1     10     23      -7449.    
      4      1     14     17     -0.1685E+05

      4 WELLS

                 RECHARGE =  5.000000E-04



 CLASSIFICATION & COUNT OF STREAM SEGMENTS BASED ON SOURCE OF INFLOW:

                HEADWATER     DIVERSION     RECEIVES TRIBUTARY FLOW
                ---------     ---------     -----------------------
                     2              0               1



                    INPUT DATA FOR EACH STREAM SEGMENT
 ---------------------------------------------------------------------------------------------

 SEGMENT    SEG.     INFLOW   OVERLAND   STREAM    STREAM   ICALC  OUTFLOW  DIVERSION PRIORITY
    NO.    LENGTH     RATE     RUNOFF      ET       PPT.    METH.  TO SEG.  FROM SEG.    NO.

      1  4.400E+03 1.000E+05 0.000E+00 0.000E+00 0.000E+00    1        3        0        0
      2  1.800E+03 5.000E+04 0.000E+00 0.000E+00 0.000E+00    1        3        0        0
      3  1.800E+03 0.000E+00 0.000E+00 0.000E+00 0.000E+00    1        0        0        0


         STREAMBED PROPERTIES AND STREAM DIMENSIONS

 SEGMENT     BED HYD. COND.      BED THICKNESS     ELEV.-TOP OF BED     WIDTH OF STREAM     DEPTH OF STREAM    STREAM ROUGHNESS
    No.     UPPER     LOWER     UPPER     LOWER     UPPER     LOWER     UPPER     LOWER     UPPER     LOWER   CHANNEL      BANK

     1  5.000E+00 5.000E+00 1.000E+00 1.000E+00 4.850E+01 3.800E+01 2.000E+01 2.000E+01                     5.000E-02
     2  5.000E+00 5.000E+00 1.000E+00 1.000E+00 4.025E+01 3.800E+01 2.000E+01 2.000E+01                     5.000E-02
     3  5.000E+00 5.000E+00 1.000E+00 1.000E+00 3.800E+01 3.000E+01 2.000E+01 2.000E+01                     5.000E-02



 
 SOLVING FOR HEAD 


     9 CALLS TO PCG ROUTINE FOR TIME STEP   1 IN STRESS PERIOD    1
    36 TOTAL ITERATIONS

 OUTPUT CONTROL FOR STRESS PERIOD    1   TIME STEP    1
    SAVE BUDGET
    SAVE HEAD FOR ALL LAYERS
    PRINT HEAD FOR ALL LAYERS
 UBDSV2 SAVING "STREAMFLOW OUT  " ON UNIT  50 AT TIME STEP  1, STRESS PERIOD   1



 STREAM LISTING     PERIOD      1   STEP        1

 LAYER ROW COL. STREAM  RCH.  FLOW INTO     FLOW TO   FLOW OUT OF   OVRLND.     DIRECT     STREAM       STREAM     STREAM     STREAM   STREAMBED  STREAMBED
                SEG.NO.  NO.  STRM. RCH.    AQUIFER    STRM. RCH.    RUNOFF     PRECIP       ET          HEAD       DEPTH      WIDTH   CONDCTNC.   GRADIENT

   1   13    1     1     1    1.0000E+05 -6.1047E+03   1.0610E+05  0.000E+00  0.000E+00  0.000E+00  4.84086E+01  1.473E-01  2.000E+01  2.000E+04 -3.052E-01
   1   13    2     1     2    1.0610E+05 -7.5736E+03   1.1368E+05  0.000E+00  0.000E+00  0.000E+00  4.79372E+01  1.531E-01  2.000E+01  2.000E+04 -3.787E-01
   1   14    3     1     3    1.1368E+05 -2.1978E+03   1.1588E+05  0.000E+00  0.000E+00  0.000E+00  4.74639E+01  1.571E-01  2.000E+01  2.000E+04 -1.099E-01
   1   15    4     1     4    1.1588E+05 -2.2693E+03   1.1815E+05  0.000E+00  0.000E+00  0.000E+00  4.69885E+01  1.589E-01  2.000E+01  2.000E+04 -1.135E-01
   1   16    5     1     5    1.1815E+05 -7.1778E+03   1.2532E+05  0.000E+00  0.000E+00  0.000E+00  4.65150E+01  1.628E-01  2.000E+01  2.000E+04 -3.589E-01
   1   16    6     1     6    1.2532E+05 -4.2968E+03   1.2962E+05  0.000E+00  0.000E+00  0.000E+00  4.60423E+01  1.673E-01  2.000E+01  2.000E+04 -2.148E-01
   1   16    7     1     7    1.2962E+05 -4.1289E+03   1.3375E+05  0.000E+00  0.000E+00  0.000E+00  4.55684E+01  1.706E-01  2.000E+01  2.000E+04 -2.064E-01
   1   16    8     1     8    1.3375E+05 -4.0833E+03   1.3783E+05  0.000E+00  0.000E+00  0.000E+00  4.50943E+01  1.738E-01  2.000E+01  2.000E+04 -2.042E-01
   1   16    9     1     9    1.3783E+05 -4.0647E+03   1.4190E+05  0.000E+00  0.000E+00  0.000E+00  4.46201E+01  1.769E-01  2.000E+01  2.000E+04 -2.032E-01
   1   16   10     1    10    1.4190E+05 -4.0478E+03   1.4594E+05  0.000E+00  0.000E+00  0.000E+00  4.41459E+01  1.800E-01  2.000E+01  2.000E+04 -2.024E-01
   1   16   11     1    11    1.4594E+05 -4.0516E+03   1.5000E+05  0.000E+00  0.000E+00  0.000E+00  4.36716E+01  1.830E-01  2.000E+01  2.000E+04 -2.026E-01
   1   16   12     1    12    1.5000E+05 -6.6890E+03   1.5669E+05  0.000E+00  0.000E+00  0.000E+00  4.31983E+01  1.869E-01  2.000E+01  2.000E+04 -3.345E-01
   1   15   13     1    13    1.5669E+05 -6.6835E+03   1.6337E+05  0.000E+00  0.000E+00  0.000E+00  4.27259E+01  1.918E-01  2.000E+01  2.000E+04 -3.342E-01
   1   14   14     1    14    1.6337E+05 -6.3694E+03   1.6974E+05  0.000E+00  0.000E+00  0.000E+00  4.22533E+01  1.965E-01  2.000E+01  2.000E+04 -3.185E-01
   1   13   15     1    15    1.6974E+05 -5.7773E+03   1.7552E+05  0.000E+00  0.000E+00  0.000E+00  4.17803E+01  2.007E-01  2.000E+01  2.000E+04 -2.889E-01
   1   12   16     1    16    1.7552E+05 -7.0779E+03   1.8259E+05  0.000E+00  0.000E+00  0.000E+00  4.13074E+01  2.052E-01  2.000E+01  2.000E+04 -3.539E-01
   1   12   17     1    17    1.8259E+05 -3.5808E+03   1.8617E+05  0.000E+00  0.000E+00  0.000E+00  4.08338E+01  2.088E-01  2.000E+01  2.000E+04 -1.790E-01
   1   12   18     1    18    1.8617E+05 -4.1550E+03   1.9033E+05  0.000E+00  0.000E+00  0.000E+00  4.03592E+01  2.114E-01  2.000E+01  2.000E+04 -2.078E-01
   1   12   19     1    19    1.9033E+05 -5.9522E+03   1.9628E+05  0.000E+00  0.000E+00  0.000E+00  3.98853E+01  2.148E-01  2.000E+01  2.000E+04 -2.976E-01
   1   13   20     1    20    1.9628E+05 -4.9568E+03   2.0124E+05  0.000E+00  0.000E+00  0.000E+00  3.94116E+01  2.184E-01  2.000E+01  2.000E+04 -2.478E-01
   1   14   21     1    21    2.0124E+05 -5.3197E+03   2.0656E+05  0.000E+00  0.000E+00  0.000E+00  3.89377E+01  2.218E-01  2.000E+01  2.000E+04 -2.660E-01
   1   14   22     1    22    2.0656E+05  3.8145E+03   2.0274E+05  0.000E+00  0.000E+00  0.000E+00  3.84609E+01  2.223E-01  2.000E+01  2.000E+04  1.907E-01
   1    9   30     2     1    5.0000E+04 -4.7552E+03   5.4755E+04  0.000E+00  0.000E+00  0.000E+00  4.02441E+01  1.191E-01  2.000E+01  2.000E+04 -2.378E-01
   1    9   29     2     2    5.4755E+04 -5.0282E+03   5.9783E+04  0.000E+00  0.000E+00  0.000E+00  4.00007E+01  1.257E-01  2.000E+01  2.000E+04 -2.514E-01
   1    9   28     2     3    5.9783E+04 -5.2491E+03   6.5032E+04  0.000E+00  0.000E+00  0.000E+00  3.97573E+01  1.323E-01  2.000E+01  2.000E+04 -2.625E-01
   1    9   27     2     4    6.5032E+04 -7.6407E+03   7.2673E+04  0.000E+00  0.000E+00  0.000E+00  3.95154E+01  1.404E-01  2.000E+01  2.000E+04 -3.820E-01
   1   10   26     2     5    7.2673E+04 -6.2819E+03   7.8955E+04  0.000E+00  0.000E+00  0.000E+00  3.92737E+01  1.487E-01  2.000E+01  2.000E+04 -3.141E-01
   1   11   25     2     6    7.8955E+04 -5.2227E+03   8.4178E+04  0.000E+00  0.000E+00  0.000E+00  3.90304E+01  1.554E-01  2.000E+01  2.000E+04 -2.611E-01
   1   12   24     2     7    8.4178E+04 -4.5750E+03   8.8753E+04  0.000E+00  0.000E+00  0.000E+00  3.87859E+01  1.609E-01  2.000E+01  2.000E+04 -2.287E-01
   1   13   23     2     8    8.8753E+04 -1.4250E+03   9.0178E+04  0.000E+00  0.000E+00  0.000E+00  3.85393E+01  1.643E-01  2.000E+01  2.000E+04 -7.125E-02
   1   14   22     2     9    9.0178E+04  3.9263E+02   8.9785E+04  0.000E+00  0.000E+00  0.000E+00  3.82898E+01  1.648E-01  2.000E+01  2.000E+04  1.963E-02
   1   14   22     3     1    2.9253E+05 -9.6767E+03   3.0221E+05  0.000E+00  0.000E+00  0.000E+00  3.77864E+01  2.308E-01  2.000E+01  2.000E+04 -4.838E-01
   1   15   23     3     2    3.0221E+05 -1.9300E+03   3.0414E+05  0.000E+00  0.000E+00  0.000E+00  3.69002E+01  2.335E-01  2.000E+01  2.000E+04 -9.650E-02
   1   15   24     3     3    3.0414E+05 -1.5223E+03   3.0566E+05  0.000E+00  0.000E+00  0.000E+00  3.60121E+01  2.343E-01  2.000E+01  2.000E+04 -7.612E-02
   1   15   25     3     4    3.0566E+05 -1.5761E+03   3.0723E+05  0.000E+00  0.000E+00  0.000E+00  3.51239E+01  2.350E-01  2.000E+01  2.000E+04 -7.881E-02
   1   15   26     3     5    3.0723E+05 -1.8814E+03   3.0911E+05  0.000E+00  0.000E+00  0.000E+00  3.42358E+01  2.358E-01  2.000E+01  2.000E+04 -9.407E-02
   1   16   27     3     6    3.0911E+05 -2.1627E+03   3.1128E+05  0.000E+00  0.000E+00  0.000E+00  3.33479E+01  2.367E-01  2.000E+01  2.000E+04 -1.081E-01
   1   17   28     3     7    3.1128E+05 -6.5722E+03   3.1785E+05  0.000E+00  0.000E+00  0.000E+00  3.24610E+01  2.387E-01  2.000E+01  2.000E+04 -3.286E-01
   1   18   29     3     8    3.1785E+05 -7.9775E+03   3.2583E+05  0.000E+00  0.000E+00  0.000E+00  3.15754E+01  2.420E-01  2.000E+01  2.000E+04 -3.989E-01
   1   18   30     3     9    3.2583E+05 -7.1650E+03   3.3299E+05  0.000E+00  0.000E+00  0.000E+00  3.06899E+01  2.454E-01  2.000E+01  2.000E+04 -3.583E-01



1
              HEAD IN LAYER   1 AT END OF TIME STEP   1 IN STRESS PERIOD    1
  ---------------------------------------------------------------------------

          1      2      3      4      5      6      7      8      9     10
         11     12     13     14     15     16     17     18     19     20
         21     22     23     24     25     26     27     28     29     30
 .........................................................................
   1  ****** ****** ****** ****** ****** ****** ****** ****** ****** ******
      ****** ****** ****** ****** ****** ****** ****** ****** ****** ******
      ****** ****** ****** ****** ****** ****** ****** ****** ****** ******
   2  ****** ****** ****** ****** ****** ****** ****** ****** ****** ******
      ****** ****** ****** ****** ****** ****** ****** ****** ****** ******
      ****** ****** ****** ****** ****** ****** ****** ****** ****** ******
   3  ****** ****** ****** ****** ****** ****** ****** ****** ****** ******
      ****** ****** ****** ****** ****** ****** ****** ****** ****** ******
      ****** ****** ****** ****** ****** ****** ****** ****** ****** ******
   4  ****** ****** ****** ****** ****** ****** ****** ****** ****** ******
      ****** ****** ****** ****** ****** ****** ****** ****** ****** ******
      ****** ****** ****** ****** ****** ****** ****** ****** ****** ******
   5  ****** ****** ****** ****** ****** ****** ****** ****** ****** ******
      ****** ****** ****** ****** ****** ****** ****** ****** ****** ******
      ****** ****** ****** ****** ****** ****** ****** ****** ****** ******
   6  ****** ****** ****** ****** ****** ****** ****** ****** ****** ******
      ****** ****** ****** ****** ****** ****** ****** ****** ****** ******
      ****** ****** ****** ****** ****** ****** ****** ****** ****** ******
   7  ****** ****** ****** ****** ****** ****** ****** ****** ****** ******
      ****** ****** ****** ****** ****** ****** ****** ****** ****** ******
      ****** ****** ****** ****** ****** ****** ****** ****** ****** ******
   8  ****** ****** ****** ****** ****** ****** ****** ****** ****** ******
      ****** ****** ****** ****** ****** ****** ****** ****** ****** ******
      ****** ****** ****** ****** ****** ****** ****** ****** ****** ******
   9  ****** ****** ****** ****** ****** ****** ****** ****** ****** ******
      ****** ****** ****** ****** ****** ****** ****** ****** ****** ******
      ****** ****** ****** ****** ****** ****** ****** ****** ****** ******
  10  ****** ****** ****** ****** ****** ****** ****** ****** ****** ******
      ****** ****** ****** ****** ****** ****** ****** ****** ****** ******
      ****** ****** ****** ****** ****** ****** ****** ****** ****** ******
  11  ****** ****** ****** ****** ****** ****** ****** ****** ****** ******
      ****** ****** ****** ****** ****** ****** ****** ****** ****** ******
      ****** ****** ****** ****** ****** ****** ****** ****** ****** ******
  12  ****** ****** ****** ****** ****** ****** ****** ****** ****** ******
      ****** ****** ****** ****** ****** ****** ****** ****** ****** ******
      ****** ****** ****** ****** ****** ****** ****** ****** ****** ******
  13  ****** ****** ****** ****** ****** ****** ****** ****** ****** ******
      ****** ****** ****** ****** ****** ****** ****** ****** ****** ******
      ****** ****** ****** ****** ****** ****** ****** ****** ****** ******
  14  ****** ****** ****** ****** ****** ****** ****** ****** ****** ******
      ****** ****** ****** ****** ****** ****** ****** ****** ****** ******
      ****** ****** ****** ****** ****** ****** ****** ****** ****** ******
  15  ****** ****** ****** ****** ****** ****** ****** ****** ****** ******
      ****** ****** ****** ****** ****** ****** ****** ****** ****** ******
      ****** ****** ****** ****** ****** ****** ****** ****** ****** ******
  16  ****** ****** ****** ****** ****** ****** ****** ****** ****** ******
      ****** ****** ****** ****** ****** ****** ****** ****** ****** ******
      ****** ****** ****** ****** ****** ****** ****** ****** ****** ******
  17  ****** ****** ****** ****** ****** ****** ****** ****** ****** ******
      ****** ****** ****** ****** ****** ****** ****** ****** ****** ******
      ****** ****** ****** ****** ****** ****** ****** ****** ****** ******
  18  ****** ****** ****** ****** ****** ****** ****** ****** ****** ******
      ****** ****** ****** ****** ****** ****** ****** ****** ****** ******
      ****** ****** ****** ****** ****** ****** ****** ****** ****** ******
  19  ****** ****** ****** ****** ****** ****** ****** ****** ****** ******
      ****** ****** ****** ****** ****** ****** ****** ****** ****** ******
      ****** ****** ****** ****** ****** ****** ****** ****** ****** ******
  20  ****** ****** ****** ****** ****** ****** ****** ****** ****** ******
      ****** ****** ****** ****** ****** ****** ****** ****** ****** ******
      ****** ****** ****** ****** ****** ****** ****** ****** ****** ******
  21  ****** ****** ****** ****** ****** ****** ****** ****** ****** ******
      ****** ****** ****** ****** ****** ****** ****** ****** ****** ******
      ****** ****** ****** ****** ****** ****** ****** ****** ****** ******
  22  ****** ****** ****** ****** ****** ****** ****** ****** ****** ******
      ****** ****** ****** ****** ****** ****** ****** ****** ****** ******
      ****** ****** ****** ****** ****** ****** ****** ****** ****** ******
  23  ****** ****** ****** ****** ****** ****** ****** ****** ****** ******
      ****** ****** ****** ****** ****** ****** ****** ****** ****** ******
      ****** ****** ****** ****** ****** ****** ****** ****** ****** ******
  24  ****** ****** ****** ****** ****** ****** ****** ****** ****** ******
      ****** ****** ****** ****** ****** ****** ****** ****** ****** ******
      ****** ****** ****** ****** ****** ****** ****** ****** ****** ******
  25  ****** ****** ****** ****** ****** ****** ****** ****** ****** ******
      ****** ****** ****** ****** ****** ****** ****** ****** ****** ******
      ****** ****** ****** ****** ****** ****** ****** ****** ****** ******

 HEAD WILL BE SAVED ON UNIT   51 AT END OF TIME STEP    1, STRESS PERIOD    1
1
  VOLUMETRIC BUDGET FOR ENTIRE MODEL AT END OF TIME STEP    1, STRESS PERIOD   1
  ------------------------------------------------------------------------------

     CUMULATIVE VOLUMES      L**3       RATES FOR THIS TIME STEP      L**3/T
     ------------------                 ------------------------

           IN:                                      IN:
           ---                                      ---
             STORAGE =    17977092.1623               STORAGE =      195403.1757
       CONSTANT HEAD =     1180472.4387         CONSTANT HEAD =       12831.2222
               WELLS =           0.0000                 WELLS =           0.0000
            RECHARGE =     1269600.0000              RECHARGE =       13800.0000
      STREAM LEAKAGE =      387052.7563        STREAM LEAKAGE =        4207.0952

            TOTAL IN =    20814217.3573              TOTAL IN =      226241.4930

          OUT:                                     OUT:
          ----                                     ----
             STORAGE =           0.0000               STORAGE =           0.0000
       CONSTANT HEAD =           0.0000         CONSTANT HEAD =           0.0000
               WELLS =     3591869.4998                 WELLS =       39042.0598
            RECHARGE =           0.0000              RECHARGE =           0.0000
      STREAM LEAKAGE =    17222348.1510        STREAM LEAKAGE =      187199.4364

           TOTAL OUT =    20814217.6509             TOTAL OUT =      226241.4962

            IN - OUT =          -0.2936              IN - OUT =      -3.1914E-03

 PERCENT DISCREPANCY =          -0.00     PERCENT DISCREPANCY =          -0.00






         TIME SUMMARY AT END OF TIME STEP    1 IN STRESS PERIOD    1
                    SECONDS     MINUTES      HOURS       DAYS        YEARS
                    -----------------------------------------------------------
   TIME STEP LENGTH 7.94880E+06 1.32480E+05  2208.0      92.000     0.25188    
 STRESS PERIOD TIME 7.94880E+06 1.32480E+05  2208.0      92.000     0.25188    
         TOTAL TIME 7.94880E+06 1.32480E+05  2208.0      92.000     0.25188    
1
1
                            STRESS PERIOD NO.    2, LENGTH =   91.00000    
                            -----------------------------------------------

                              NUMBER OF TIME STEPS =     1

                               MULTIPLIER FOR DELT =     1.500

                            INITIAL TIME STEP SIZE =   91.00000    

 WELL NO.  LAYER   ROW   COL   STRESS RATE         
 --------------------------------------------------
      1      1      8     21      -8122.    
      2      1      4     14      -6617.    
      3      1     10     23      -7449.    
      4      1     14     17     -0.1685E+05

      4 WELLS

                 RECHARGE =  2.000000E-03

 REUSING STREAM SEGMENT DATA FROM LAST STRESS PERIOD
 
 SOLVING FOR HEAD 


     7 CALLS TO PCG ROUTINE FOR TIME STEP   1 IN STRESS PERIOD    2
    27 TOTAL ITERATIONS

 OUTPUT CONTROL FOR STRESS PERIOD    2   TIME STEP    1
    SAVE BUDGET
    SAVE HEAD FOR ALL LAYERS
    PRINT HEAD FOR ALL LAYERS
 UBDSV2 SAVING "STREAMFLOW OUT  " ON UNIT  50 AT TIME STEP  1, STRESS PERIOD   2



 STREAM LISTING     PERIOD      2   STEP        1

 LAYER ROW COL. STREAM  RCH.  FLOW INTO     FLOW TO   FLOW OUT OF   OVRLND.     DIRECT     STREAM       STREAM     STREAM     STREAM   STREAMBED  STREAMBED
                SEG.NO.  NO.  STRM. RCH.    AQUIFER    STRM. RCH.    RUNOFF     PRECIP       ET          HEAD       DEPTH      WIDTH   CONDCTNC.   GRADIENT

   1   13    1     1     1    1.0000E+05 -3.9600E+03   1.0396E+05  0.000E+00  0.000E+00  0.000E+00  4.84077E+01  1.464E-01  2.000E+01  2.000E+04 -1.980E-01
   1   13    2     1     2    1.0396E+05 -5.2196E+03   1.0918E+05  0.000E+00  0.000E+00  0.000E+00  4.79344E+01  1.503E-01  2.000E+01  2.000E+04 -2.610E-01
   1   14    3     1     3    1.0918E+05 -1.1128E+03   1.1029E+05  0.000E+00  0.000E+00  0.000E+00  4.74598E+01  1.529E-01  2.000E+01  2.000E+04 -5.564E-02
   1   15    4     1     4    1.1029E+05 -1.1412E+03   1.1143E+05  0.000E+00  0.000E+00  0.000E+00  4.69834E+01  1.539E-01  2.000E+01  2.000E+04 -5.706E-02
   1   16    5     1     5    1.1143E+05 -4.2385E+03   1.1567E+05  0.000E+00  0.000E+00  0.000E+00  4.65084E+01  1.561E-01  2.000E+01  2.000E+04 -2.119E-01
   1   16    6     1     6    1.1567E+05 -2.4940E+03   1.1817E+05  0.000E+00  0.000E+00  0.000E+00  4.60339E+01  1.589E-01  2.000E+01  2.000E+04 -1.247E-01
   1   16    7     1     7    1.1817E+05 -2.3949E+03   1.2056E+05  0.000E+00  0.000E+00  0.000E+00  4.55586E+01  1.609E-01  2.000E+01  2.000E+04 -1.197E-01
   1   16    8     1     8    1.2056E+05 -2.3579E+03   1.2292E+05  0.000E+00  0.000E+00  0.000E+00  4.50832E+01  1.628E-01  2.000E+01  2.000E+04 -1.179E-01
   1   16    9     1     9    1.2292E+05 -2.3246E+03   1.2524E+05  0.000E+00  0.000E+00  0.000E+00  4.46078E+01  1.646E-01  2.000E+01  2.000E+04 -1.162E-01
   1   16   10     1    10    1.2524E+05 -2.2788E+03   1.2752E+05  0.000E+00  0.000E+00  0.000E+00  4.41324E+01  1.665E-01  2.000E+01  2.000E+04 -1.139E-01
   1   16   11     1    11    1.2752E+05 -2.2400E+03   1.2976E+05  0.000E+00  0.000E+00  0.000E+00  4.36569E+01  1.682E-01  2.000E+01  2.000E+04 -1.120E-01
   1   16   12     1    12    1.2976E+05 -3.6884E+03   1.3345E+05  0.000E+00  0.000E+00  0.000E+00  4.31819E+01  1.706E-01  2.000E+01  2.000E+04 -1.844E-01
   1   15   13     1    13    1.3345E+05 -3.2752E+03   1.3673E+05  0.000E+00  0.000E+00  0.000E+00  4.27073E+01  1.733E-01  2.000E+01  2.000E+04 -1.638E-01
   1   14   14     1    14    1.3673E+05 -2.7520E+03   1.3948E+05  0.000E+00  0.000E+00  0.000E+00  4.22324E+01  1.756E-01  2.000E+01  2.000E+04 -1.376E-01
   1   13   15     1    15    1.3948E+05 -2.0816E+03   1.4156E+05  0.000E+00  0.000E+00  0.000E+00  4.17570E+01  1.774E-01  2.000E+01  2.000E+04 -1.041E-01
   1   12   16     1    16    1.4156E+05 -3.5599E+03   1.4512E+05  0.000E+00  0.000E+00  0.000E+00  4.12818E+01  1.795E-01  2.000E+01  2.000E+04 -1.780E-01
   1   12   17     1    17    1.4512E+05 -7.3701E+02   1.4586E+05  0.000E+00  0.000E+00  0.000E+00  4.08061E+01  1.811E-01  2.000E+01  2.000E+04 -3.685E-02
   1   12   18     1    18    1.4586E+05 -1.3134E+03   1.4717E+05  0.000E+00  0.000E+00  0.000E+00  4.03296E+01  1.819E-01  2.000E+01  2.000E+04 -6.567E-02
   1   12   19     1    19    1.4717E+05 -2.4050E+03   1.4958E+05  0.000E+00  0.000E+00  0.000E+00  3.98537E+01  1.833E-01  2.000E+01  2.000E+04 -1.203E-01
   1   13   20     1    20    1.4958E+05 -1.4880E+03   1.5106E+05  0.000E+00  0.000E+00  0.000E+00  3.93779E+01  1.847E-01  2.000E+01  2.000E+04 -7.440E-02
   1   14   21     1    21    1.5106E+05 -2.3517E+03   1.5341E+05  0.000E+00  0.000E+00  0.000E+00  3.89020E+01  1.861E-01  2.000E+01  2.000E+04 -1.176E-01
   1   14   22     1    22    1.5341E+05  4.6190E+03   1.4880E+05  0.000E+00  0.000E+00  0.000E+00  3.84239E+01  1.853E-01  2.000E+01  2.000E+04  2.310E-01
   1    9   30     2     1    5.0000E+04 -1.9674E+03   5.1967E+04  0.000E+00  0.000E+00  0.000E+00  4.02422E+01  1.172E-01  2.000E+01  2.000E+04 -9.837E-02
   1    9   29     2     2    5.1967E+04 -2.2446E+03   5.4212E+04  0.000E+00  0.000E+00  0.000E+00  3.99951E+01  1.201E-01  2.000E+01  2.000E+04 -1.122E-01
   1    9   28     2     3    5.4212E+04 -2.4580E+03   5.6670E+04  0.000E+00  0.000E+00  0.000E+00  3.97483E+01  1.233E-01  2.000E+01  2.000E+04 -1.229E-01
   1    9   27     2     4    5.6670E+04 -3.9173E+03   6.0587E+04  0.000E+00  0.000E+00  0.000E+00  3.95025E+01  1.275E-01  2.000E+01  2.000E+04 -1.959E-01
   1   10   26     2     5    6.0587E+04 -2.4094E+03   6.2997E+04  0.000E+00  0.000E+00  0.000E+00  3.92566E+01  1.316E-01  2.000E+01  2.000E+04 -1.205E-01
   1   11   25     2     6    6.2997E+04 -1.4767E+03   6.4473E+04  0.000E+00  0.000E+00  0.000E+00  3.90090E+01  1.340E-01  2.000E+01  2.000E+04 -7.384E-02
   1   12   24     2     7    6.4473E+04 -1.1681E+03   6.5642E+04  0.000E+00  0.000E+00  0.000E+00  3.87607E+01  1.357E-01  2.000E+01  2.000E+04 -5.840E-02
   1   13   23     2     8    6.5642E+04 -3.3443E+02   6.5976E+04  0.000E+00  0.000E+00  0.000E+00  3.85116E+01  1.366E-01  2.000E+01  2.000E+04 -1.672E-02
   1   14   22     2     9    6.5976E+04  1.3599E+03   6.4616E+04  0.000E+00  0.000E+00  0.000E+00  3.82610E+01  1.360E-01  2.000E+01  2.000E+04  6.800E-02
   1   14   22     3     1    2.1341E+05 -8.9183E+03   2.2233E+05  0.000E+00  0.000E+00  0.000E+00  3.77471E+01  1.915E-01  2.000E+01  2.000E+04 -4.459E-01
   1   15   23     3     2    2.2233E+05 -9.6742E+02   2.2330E+05  0.000E+00  0.000E+00  0.000E+00  3.68608E+01  1.941E-01  2.000E+01  2.000E+04 -4.837E-02
   1   15   24     3     3    2.2330E+05 -6.5084E+02   2.2395E+05  0.000E+00  0.000E+00  0.000E+00  3.59723E+01  1.945E-01  2.000E+01  2.000E+04 -3.254E-02
   1   15   25     3     4    2.2395E+05 -6.6408E+02   2.2461E+05  0.000E+00  0.000E+00  0.000E+00  3.50838E+01  1.949E-01  2.000E+01  2.000E+04 -3.320E-02
   1   15   26     3     5    2.2461E+05 -7.6935E+02   2.2538E+05  0.000E+00  0.000E+00  0.000E+00  3.41953E+01  1.953E-01  2.000E+01  2.000E+04 -3.847E-02
   1   16   27     3     6    2.2538E+05 -8.9356E+02   2.2628E+05  0.000E+00  0.000E+00  0.000E+00  3.33068E+01  1.957E-01  2.000E+01  2.000E+04 -4.468E-02
   1   17   28     3     7    2.2628E+05 -3.2391E+03   2.2951E+05  0.000E+00  0.000E+00  0.000E+00  3.24190E+01  1.968E-01  2.000E+01  2.000E+04 -1.620E-01
   1   18   29     3     8    2.2951E+05 -5.0150E+03   2.3453E+05  0.000E+00  0.000E+00  0.000E+00  3.15322E+01  1.989E-01  2.000E+01  2.000E+04 -2.508E-01
   1   18   30     3     9    2.3453E+05 -4.6609E+03   2.3919E+05  0.000E+00  0.000E+00  0.000E+00  3.06458E+01  2.014E-01  2.000E+01  2.000E+04 -2.330E-01



1
              HEAD IN LAYER   1 AT END OF TIME STEP   1 IN STRESS PERIOD    2
  ---------------------------------------------------------------------------

          1      2      3      4      5      6      7      8      9     10
         11     12     13     14     15     16     17     18     19     20
         21     22     23     24     25     26     27     28     29     30
 .........................................................................
   1  ****** ****** ****** ****** ****** ****** ****** ****** ****** ******
      ****** ****** ****** ****** ****** ****** ****** ****** ****** ******
      ****** ****** ****** ****** ****** ****** ****** ****** ****** ******
   2  ****** ****** ****** ****** ****** ****** ****** ****** ****** ******
      ****** ****** ****** ****** ****** ****** ****** ****** ****** ******
      ****** ****** ****** ****** ****** ****** ****** ****** ****** ******
   3  ****** ****** ****** ****** ****** ****** ****** ****** ****** ******
      ****** ****** ****** ****** ****** ****** ****** ****** ****** ******
      ****** ****** ****** ****** ****** ****** ****** ****** ****** ******
   4  ****** ****** ****** ****** ****** ****** ****** ****** ****** ******
      ****** ****** ****** ****** ****** ****** ****** ****** ****** ******
      ****** ****** ****** ****** ****** ****** ****** ****** ****** ******
   5  ****** ****** ****** ****** ****** ****** ****** ****** ****** ******
      ****** ****** ****** ****** ****** ****** ****** ****** ****** ******
      ****** ****** ****** ****** ****** ****** ****** ****** ****** ******
   6  ****** ****** ****** ****** ****** ****** ****** ****** ****** ******
      ****** ****** ****** ****** ****** ****** ****** ****** ****** ******
      ****** ****** ****** ****** ****** ****** ****** ****** ****** ******
   7  ****** ****** ****** ****** ****** ****** ****** ****** ****** ******
      ****** ****** ****** ****** ****** ****** ****** ****** ****** ******
      ****** ****** ****** ****** ****** ****** ****** ****** ****** ******
   8  ****** ****** ****** ****** ****** ****** ****** ****** ****** ******
      ****** ****** ****** ****** ****** ****** ****** ****** ****** ******
      ****** ****** ****** ****** ****** ****** ****** ****** ****** ******
   9  ****** ****** ****** ****** ****** ****** ****** ****** ****** ******
      ****** ****** ****** ****** ****** ****** ****** ****** ****** ******
      ****** ****** ****** ****** ****** ****** ****** ****** ****** ******
  10  ****** ****** ****** ****** ****** ****** ****** ****** ****** ******
      ****** ****** ****** ****** ****** ****** ****** ****** ****** ******
      ****** ****** ****** ****** ****** ****** ****** ****** ****** ******
  11  ****** ****** ****** ****** ****** ****** ****** ****** ****** ******
      ****** ****** ****** ****** ****** ****** ****** ****** ****** ******
      ****** ****** ****** ****** ****** ****** ****** ****** ****** ******
  12  ****** ****** ****** ****** ****** ****** ****** ****** ****** ******
      ****** ****** ****** ****** ****** ****** ****** ****** ****** ******
      ****** ****** ****** ****** ****** ****** ****** ****** ****** ******
  13  ****** ****** ****** ****** ****** ****** ****** ****** ****** ******
      ****** ****** ****** ****** ****** ****** ****** ****** ****** ******
      ****** ****** ****** ****** ****** ****** ****** ****** ****** ******
  14  ****** ****** ****** ****** ****** ****** ****** ****** ****** ******
      ****** ****** ****** ****** ****** ****** ****** ****** ****** ******
      ****** ****** ****** ****** ****** ****** ****** ****** ****** ******
  15  ****** ****** ****** ****** ****** ****** ****** ****** ****** ******
      ****** ****** ****** ****** ****** ****** ****** ****** ****** ******
      ****** ****** ****** ****** ****** ****** ****** ****** ****** ******
  16  ****** ****** ****** ****** ****** ****** ****** ****** ****** ******
      ****** ****** ****** ****** ****** ****** ****** ****** ****** ******
      ****** ****** ****** ****** ****** ****** ****** ****** ****** ******
  17  ****** ****** ****** ****** ****** ****** ****** ****** ****** ******
      ****** ****** ****** ****** ****** ****** ****** ****** ****** ******
      ****** ****** ****** ****** ****** ****** ****** ****** ****** ******
  18  ****** ****** ****** ****** ****** ****** ****** ****** ****** ******
      ****** ****** ****** ****** ****** ****** ****** ****** ****** ******
      ****** ****** ****** ****** ****** ****** ****** ****** ****** ******
  19  ****** ****** ****** ****** ****** ****** ****** ****** ****** ******
      ****** ****** ****** ****** ****** ****** ****** ****** ****** ******
      ****** ****** ****** ****** ****** ****** ****** ****** ****** ******
  20  ****** ****** ****** ****** ****** ****** ****** ****** ****** ******
      ****** ****** ****** ****** ****** ****** ****** ****** ****** ******
      ****** ****** ****** ****** ****** ****** ****** ****** ****** ******
  21  ****** ****** ****** ****** ****** ****** ****** ****** ****** ******
      ****** ****** ****** ****** ****** ****** ****** ****** ****** ******
      ****** ****** ****** ****** ****** ****** ****** ****** ****** ******
  22  ****** ****** ****** ****** ****** ****** ****** ****** ****** ******
      ****** ****** ****** ****** ****** ****** ****** ****** ****** ******
      ****** ****** ****** ****** ****** ****** ****** ****** ****** ******
  23  ****** ****** ****** ****** ****** ****** ****** ****** ****** ******
      ****** ****** ****** ****** ****** ****** ****** ****** ****** ******
      ****** ****** ****** ****** ****** ****** ****** ****** ****** ******
  24  ****** ****** ****** ****** ****** ****** ****** ****** ****** ******
      ****** ****** ****** ****** ****** ****** ****** ****** ****** ******
      ****** ****** ****** ****** ****** ****** ****** ****** ****** ******
  25  ****** ****** ****** ****** ****** ****** ****** ****** ****** ******
      ****** ****** ****** ****** ****** ****** ****** ****** ****** ******
      ****** ****** ****** ****** ****** ****** ****** ****** ****** ******

 HEAD WILL BE SAVED ON UNIT   51 AT END OF TIME STEP    1, STRESS PERIOD    2
1
  VOLUMETRIC BUDGET FOR ENTIRE MODEL AT END OF TIME STEP    1, STRESS PERIOD   2
  ------------------------------------------------------------------------------

     CUMULATIVE VOLUMES      L**3       RATES FOR THIS TIME STEP      L**3/T
     ------------------                 ------------------------

           IN:                                      IN:
           ---                                      ---
             STORAGE =    23022277.3602               STORAGE =       55441.5956
       CONSTANT HEAD =     2781232.4281         CONSTANT HEAD =       17590.7691
               WELLS =           0.0000                 WELLS =           0.0000
            RECHARGE =     6292800.0000              RECHARGE =       55200.0000
      STREAM LEAKAGE =      931138.4470        STREAM LEAKAGE =        5978.9636

            TOTAL IN =    33027448.2353              TOTAL IN =      134211.3283

          OUT:                                     OUT:
          ----                                     ----
             STORAGE =           0.0000               STORAGE =           0.0000
       CONSTANT HEAD =           0.0000         CONSTANT HEAD =           0.0000
               WELLS =     7144696.9399                 WELLS =       39042.0598
            RECHARGE =           0.0000              RECHARGE =           0.0000
      STREAM LEAKAGE =    25882752.5398        STREAM LEAKAGE =       95169.2790

           TOTAL OUT =    33027449.4797             TOTAL OUT =      134211.3388

            IN - OUT =          -1.2444              IN - OUT =      -1.0448E-02

 PERCENT DISCREPANCY =          -0.00     PERCENT DISCREPANCY =          -0.00






         TIME SUMMARY AT END OF TIME STEP    1 IN STRESS PERIOD    2
                    SECONDS     MINUTES      HOURS       DAYS        YEARS
                    -----------------------------------------------------------
   TIME STEP LENGTH 7.86240E+06 1.31040E+05  2184.0      91.000     0.24914    
 STRESS PERIOD TIME 7.86240E+06 1.31040E+05  2184.0      91.000     0.24914    
         TOTAL TIME 1.58112E+07 2.63520E+05  4392.0      183.00     0.50103    
1
1
                            STRESS PERIOD NO.    3, LENGTH =   91.00000    
                            -----------------------------------------------

                              NUMBER OF TIME STEPS =     1

                               MULTIPLIER FOR DELT =     1.500

                            INITIAL TIME STEP SIZE =   91.00000    

 WELL NO.  LAYER   ROW   COL   STRESS RATE         
 --------------------------------------------------
      1      1      8     21      -8122.    
      2      1      4     14      -6617.    
      3      1     10     23      -7449.    
      4      1     14     17     -0.1685E+05

      4 WELLS

                 RECHARGE =   0.00000    

 REUSING STREAM SEGMENT DATA FROM LAST STRESS PERIOD
 
 SOLVING FOR HEAD 


     7 CALLS TO PCG ROUTINE FOR TIME STEP   1 IN STRESS PERIOD    3
    27 TOTAL ITERATIONS

 OUTPUT CONTROL FOR STRESS PERIOD    3   TIME STEP    1
    SAVE BUDGET
    SAVE HEAD FOR ALL LAYERS
    PRINT HEAD FOR ALL LAYERS
 UBDSV2 SAVING "STREAMFLOW OUT  " ON UNIT  50 AT TIME STEP  1, STRESS PERIOD   3



 STREAM LISTING     PERIOD      3   STEP        1

 LAYER ROW COL. STREAM  RCH.  FLOW INTO     FLOW TO   FLOW OUT OF   OVRLND.     DIRECT     STREAM       STREAM     STREAM     STREAM   STREAMBED  STREAMBED
                SEG.NO.  NO.  STRM. RCH.    AQUIFER    STRM. RCH.    RUNOFF     PRECIP       ET          HEAD       DEPTH      WIDTH   CONDCTNC.   GRADIENT

   1   13    1     1     1    1.0000E+05 -2.6810E+03   1.0268E+05  0.000E+00  0.000E+00  0.000E+00  4.84072E+01  1.458E-01  2.000E+01  2.000E+04 -1.341E-01
   1   13    2     1     2    1.0268E+05 -3.7847E+03   1.0647E+05  0.000E+00  0.000E+00  0.000E+00  4.79327E+01  1.486E-01  2.000E+01  2.000E+04 -1.892E-01
   1   14    3     1     3    1.0647E+05 -6.4945E+02   1.0712E+05  0.000E+00  0.000E+00  0.000E+00  4.74573E+01  1.505E-01  2.000E+01  2.000E+04 -3.247E-02
   1   15    4     1     4    1.0712E+05 -6.3429E+02   1.0775E+05  0.000E+00  0.000E+00  0.000E+00  4.69806E+01  1.510E-01  2.000E+01  2.000E+04 -3.171E-02
   1   16    5     1     5    1.0775E+05 -2.4392E+03   1.1019E+05  0.000E+00  0.000E+00  0.000E+00  4.65046E+01  1.523E-01  2.000E+01  2.000E+04 -1.220E-01
   1   16    6     1     6    1.1019E+05 -1.4869E+03   1.1168E+05  0.000E+00  0.000E+00  0.000E+00  4.60289E+01  1.539E-01  2.000E+01  2.000E+04 -7.435E-02
   1   16    7     1     7    1.1168E+05 -1.4448E+03   1.1312E+05  0.000E+00  0.000E+00  0.000E+00  4.55529E+01  1.552E-01  2.000E+01  2.000E+04 -7.224E-02
   1   16    8     1     8    1.1312E+05 -1.4242E+03   1.1454E+05  0.000E+00  0.000E+00  0.000E+00  4.50768E+01  1.563E-01  2.000E+01  2.000E+04 -7.121E-02
   1   16    9     1     9    1.1454E+05 -1.3934E+03   1.1594E+05  0.000E+00  0.000E+00  0.000E+00  4.46007E+01  1.575E-01  2.000E+01  2.000E+04 -6.967E-02
   1   16   10     1    10    1.1594E+05 -1.3454E+03   1.1728E+05  0.000E+00  0.000E+00  0.000E+00  4.41245E+01  1.586E-01  2.000E+01  2.000E+04 -6.727E-02
   1   16   11     1    11    1.1728E+05 -1.2968E+03   1.1858E+05  0.000E+00  0.000E+00  0.000E+00  4.36483E+01  1.597E-01  2.000E+01  2.000E+04 -6.484E-02
   1   16   12     1    12    1.1858E+05 -2.0326E+03   1.2061E+05  0.000E+00  0.000E+00  0.000E+00  4.31724E+01  1.610E-01  2.000E+01  2.000E+04 -1.016E-01
   1   15   13     1    13    1.2061E+05 -1.5589E+03   1.2217E+05  0.000E+00  0.000E+00  0.000E+00  4.26966E+01  1.625E-01  2.000E+01  2.000E+04 -7.795E-02
   1   14   14     1    14    1.2217E+05 -9.6487E+02   1.2314E+05  0.000E+00  0.000E+00  0.000E+00  4.22203E+01  1.635E-01  2.000E+01  2.000E+04 -4.824E-02
   1   13   15     1    15    1.2314E+05 -2.6544E+02   1.2340E+05  0.000E+00  0.000E+00  0.000E+00  4.17435E+01  1.640E-01  2.000E+01  2.000E+04 -1.327E-02
   1   12   16     1    16    1.2340E+05 -1.6393E+03   1.2504E+05  0.000E+00  0.000E+00  0.000E+00  4.12670E+01  1.648E-01  2.000E+01  2.000E+04 -8.197E-02
   1   12   17     1    17    1.2504E+05  6.4716E+02   1.2439E+05  0.000E+00  0.000E+00  0.000E+00  4.07902E+01  1.652E-01  2.000E+01  2.000E+04  3.236E-02
   1   12   18     1    18    1.2439E+05  5.0086E+01   1.2434E+05  0.000E+00  0.000E+00  0.000E+00  4.03126E+01  1.649E-01  2.000E+01  2.000E+04  2.504E-03
   1   12   19     1    19    1.2434E+05 -6.8197E+02   1.2503E+05  0.000E+00  0.000E+00  0.000E+00  3.98356E+01  1.651E-01  2.000E+01  2.000E+04 -3.410E-02
   1   13   20     1    20    1.2503E+05  5.2425E+01   1.2497E+05  0.000E+00  0.000E+00  0.000E+00  3.93586E+01  1.654E-01  2.000E+01  2.000E+04  2.621E-03
   1   14   21     1    21    1.2497E+05 -8.2075E+02   1.2579E+05  0.000E+00  0.000E+00  0.000E+00  3.88816E+01  1.657E-01  2.000E+01  2.000E+04 -4.104E-02
   1   14   22     1    22    1.2579E+05  4.9856E+03   1.2081E+05  0.000E+00  0.000E+00  0.000E+00  3.84027E+01  1.640E-01  2.000E+01  2.000E+04  2.493E-01
   1    9   30     2     1    5.0000E+04 -7.2862E+02   5.0729E+04  0.000E+00  0.000E+00  0.000E+00  4.02414E+01  1.164E-01  2.000E+01  2.000E+04 -3.643E-02
   1    9   29     2     2    5.0729E+04 -1.0038E+03   5.1732E+04  0.000E+00  0.000E+00  0.000E+00  3.99926E+01  1.176E-01  2.000E+01  2.000E+04 -5.019E-02
   1    9   28     2     3    5.1732E+04 -1.1944E+03   5.2927E+04  0.000E+00  0.000E+00  0.000E+00  3.97441E+01  1.191E-01  2.000E+01  2.000E+04 -5.972E-02
   1    9   27     2     4    5.2927E+04 -2.0597E+03   5.4987E+04  0.000E+00  0.000E+00  0.000E+00  3.94963E+01  1.213E-01  2.000E+01  2.000E+04 -1.030E-01
   1   10   26     2     5    5.4987E+04 -6.8441E+02   5.5671E+04  0.000E+00  0.000E+00  0.000E+00  3.92481E+01  1.231E-01  2.000E+01  2.000E+04 -3.422E-02
   1   11   25     2     6    5.5671E+04  1.3228E+02   5.5539E+04  0.000E+00  0.000E+00  0.000E+00  3.89985E+01  1.235E-01  2.000E+01  2.000E+04  6.614E-03
   1   12   24     2     7    5.5539E+04  2.7949E+02   5.5259E+04  0.000E+00  0.000E+00  0.000E+00  3.87482E+01  1.232E-01  2.000E+01  2.000E+04  1.397E-02
   1   13   23     2     8    5.5259E+04  1.5670E+01   5.5244E+04  0.000E+00  0.000E+00  0.000E+00  3.84980E+01  1.230E-01  2.000E+01  2.000E+04  7.835E-04
   1   14   22     2     9    5.5244E+04  1.8676E+03   5.3376E+04  0.000E+00  0.000E+00  0.000E+00  3.82468E+01  1.218E-01  2.000E+01  2.000E+04  9.338E-02
   1   14   22     3     1    1.7418E+05 -8.5582E+03   1.8274E+05  0.000E+00  0.000E+00  0.000E+00  3.77255E+01  1.699E-01  2.000E+01  2.000E+04 -4.279E-01
   1   15   23     3     2    1.8274E+05 -5.6924E+02   1.8331E+05  0.000E+00  0.000E+00  0.000E+00  3.68392E+01  1.725E-01  2.000E+01  2.000E+04 -2.846E-02
   1   15   24     3     3    1.8331E+05 -3.2648E+02   1.8364E+05  0.000E+00  0.000E+00  0.000E+00  3.59505E+01  1.728E-01  2.000E+01  2.000E+04 -1.632E-02
   1   15   25     3     4    1.8364E+05 -3.2401E+02   1.8396E+05  0.000E+00  0.000E+00  0.000E+00  3.50618E+01  1.729E-01  2.000E+01  2.000E+04 -1.620E-02
   1   15   26     3     5    1.8396E+05 -3.6504E+02   1.8433E+05  0.000E+00  0.000E+00  0.000E+00  3.41731E+01  1.731E-01  2.000E+01  2.000E+04 -1.825E-02
   1   16   27     3     6    1.8433E+05 -4.2721E+02   1.8475E+05  0.000E+00  0.000E+00  0.000E+00  3.32845E+01  1.734E-01  2.000E+01  2.000E+04 -2.136E-02
   1   17   28     3     7    1.8475E+05 -1.8239E+03   1.8658E+05  0.000E+00  0.000E+00  0.000E+00  3.23962E+01  1.740E-01  2.000E+01  2.000E+04 -9.119E-02
   1   18   29     3     8    1.8658E+05 -3.4903E+03   1.9007E+05  0.000E+00  0.000E+00  0.000E+00  3.15088E+01  1.755E-01  2.000E+01  2.000E+04 -1.745E-01
   1   18   30     3     9    1.9007E+05 -3.5199E+03   1.9359E+05  0.000E+00  0.000E+00  0.000E+00  3.06219E+01  1.774E-01  2.000E+01  2.000E+04 -1.760E-01



1
              HEAD IN LAYER   1 AT END OF TIME STEP   1 IN STRESS PERIOD    3
  ---------------------------------------------------------------------------

          1      2      3      4      5      6      7      8      9     10
         11     12     13     14     15     16     17     18     19     20
         21     22     23     24     25     26     27     28     29     30
 .........................................................................
   1  ****** ****** ****** ****** ****** ****** ****** ****** ****** ******
      ****** ****** ****** ****** ****** ****** ****** ****** ****** ******
      ****** ****** ****** ****** ****** ****** ****** ****** ****** ******
   2  ****** ****** ****** ****** ****** ****** ****** ****** ****** ******
      ****** ****** ****** ****** ****** ****** ****** ****** ****** ******
      ****** ****** ****** ****** ****** ****** ****** ****** ****** ******
   3  ****** ****** ****** ****** ****** ****** ****** ****** ****** ******
      ****** ****** ****** ****** ****** ****** ****** ****** ****** ******
      ****** ****** ****** ****** ****** ****** ****** ****** ****** ******
   4  ****** ****** ****** ****** ****** ****** ****** ****** ****** ******
      ****** ****** ****** ****** ****** ****** ****** ****** ****** ******
      ****** ****** ****** ****** ****** ****** ****** ****** ****** ******
   5  ****** ****** ****** ****** ****** ****** ****** ****** ****** ******
      ****** ****** ****** ****** ****** ****** ****** ****** ****** ******
      ****** ****** ****** ****** ****** ****** ****** ****** ****** ******
   6  ****** ****** ****** ****** ****** ****** ****** ****** ****** ******
      ****** ****** ****** ****** ****** ****** ****** ****** ****** ******
      ****** ****** ****** ****** ****** ****** ****** ****** ****** ******
   7  ****** ****** ****** ****** ****** ****** ****** ****** ****** ******
      ****** ****** ****** ****** ****** ****** ****** ****** ****** ******
      ****** ****** ****** ****** ****** ****** ****** ****** ****** ******
   8  ****** ****** ****** ****** ****** ****** ****** ****** ****** ******
      ****** ****** ****** ****** ****** ****** ****** ****** ****** ******
      ****** ****** ****** ****** ****** ****** ****** ****** ****** ******
   9  ****** ****** ****** ****** ****** ****** ****** ****** ****** ******
      ****** ****** ****** ****** ****** ****** ****** ****** ****** ******
      ****** ****** ****** ****** ****** ****** ****** ****** ****** ******
  10  ****** ****** ****** ****** ****** ****** ****** ****** ****** ******
      ****** ****** ****** ****** ****** ****** ****** ****** ****** ******
      ****** ****** ****** ****** ****** ****** ****** ****** ****** ******
  11  ****** ****** ****** ****** ****** ****** ****** ****** ****** ******
      ****** ****** ****** ****** ****** ****** ****** ****** ****** ******
      ****** ****** ****** ****** ****** ****** ****** ****** ****** ******
  12  ****** ****** ****** ****** ****** ****** ****** ****** ****** ******
      ****** ****** ****** ****** ****** ****** ****** ****** ****** ******
      ****** ****** ****** ****** ****** ****** ****** ****** ****** ******
  13  ****** ****** ****** ****** ****** ****** ****** ****** ****** ******
      ****** ****** ****** ****** ****** ****** ****** ****** ****** ******
      ****** ****** ****** ****** ****** ****** ****** ****** ****** ******
  14  ****** ****** ****** ****** ****** ****** ****** ****** ****** ******
      ****** ****** ****** ****** ****** ****** ****** ****** ****** ******
      ****** ****** ****** ****** ****** ****** ****** ****** ****** ******
  15  ****** ****** ****** ****** ****** ****** ****** ****** ****** ******
      ****** ****** ****** ****** ****** ****** ****** ****** ****** ******
      ****** ****** ****** ****** ****** ****** ****** ****** ****** ******
  16  ****** ****** ****** ****** ****** ****** ****** ****** ****** ******
      ****** ****** ****** ****** ****** ****** ****** ****** ****** ******
      ****** ****** ****** ****** ****** ****** ****** ****** ****** ******
  17  ****** ****** ****** ****** ****** ****** ****** ****** ****** ******
      ****** ****** ****** ****** ****** ****** ****** ****** ****** ******
      ****** ****** ****** ****** ****** ****** ****** ****** ****** ******
  18  ****** ****** ****** ****** ****** ****** ****** ****** ****** ******
      ****** ****** ****** ****** ****** ****** ****** ****** ****** ******
      ****** ****** ****** ****** ****** ****** ****** ****** ****** ******
  19  ****** ****** ****** ****** ****** ****** ****** ****** ****** ******
      ****** ****** ****** ****** ****** ****** ****** ****** ****** ******
      ****** ****** ****** ****** ****** ****** ****** ****** ****** ******
  20  ****** ****** ****** ****** ****** ****** ****** ****** ****** ******
      ****** ****** ****** ****** ****** ****** ****** ****** ****** ******
      ****** ****** ****** ****** ****** ****** ****** ****** ****** ******
  21  ****** ****** ****** ****** ****** ****** ****** ****** ****** ******
      ****** ****** ****** ****** ****** ****** ****** ****** ****** ******
      ****** ****** ****** ****** ****** ****** ****** ****** ****** ******
  22  ****** ****** ****** ****** ****** ****** ****** ****** ****** ******
      ****** ****** ****** ****** ****** ****** ****** ****** ****** ******
      ****** ****** ****** ****** ****** ****** ****** ****** ****** ******
  23  ****** ****** ****** ****** ****** ****** ****** ****** ****** ******
      ****** ****** ****** ****** ****** ****** ****** ****** ****** ******
      ****** ****** ****** ****** ****** ****** ****** ****** ****** ******
  24  ****** ****** ****** ****** ****** ****** ****** ****** ****** ******
      ****** ****** ****** ****** ****** ****** ****** ****** ****** ******
      ****** ****** ****** ****** ****** ****** ****** ****** ****** ******
  25  ****** ****** ****** ****** ****** ****** ****** ****** ****** ******
      ****** ****** ****** ****** ****** ****** ****** ****** ****** ******
      ****** ****** ****** ****** ****** ****** ****** ****** ****** ******

 HEAD WILL BE SAVED ON UNIT   51 AT END OF TIME STEP    1, STRESS PERIOD    3
1
  VOLUMETRIC BUDGET FOR ENTIRE MODEL AT END OF TIME STEP    1, STRESS PERIOD   3
  ------------------------------------------------------------------------------

     CUMULATIVE VOLUMES      L**3       RATES FOR THIS TIME STEP      L**3/T
     ------------------                 ------------------------

           IN:                                      IN:
           ---                                      ---
             STORAGE =    28145961.9394               STORAGE =       56304.2261
       CONSTANT HEAD =     5176959.7720         CONSTANT HEAD =       26326.6741
               WELLS =           0.0000                 WELLS =           0.0000
            RECHARGE =     6292800.0000              RECHARGE =           0.0000
      STREAM LEAKAGE =     1661896.8901        STREAM LEAKAGE =        8030.3126

            TOTAL IN =    41277618.6015              TOTAL IN =       90661.2128

          OUT:                                     OUT:
          ----                                     ----
             STORAGE =           0.0000               STORAGE =           0.0000
       CONSTANT HEAD =           0.0000         CONSTANT HEAD =           0.0000
               WELLS =    10697524.3800                 WELLS =       39042.0598
            RECHARGE =           0.0000              RECHARGE =           0.0000
      STREAM LEAKAGE =    30580096.1744        STREAM LEAKAGE =       51619.1608

           TOTAL OUT =    41277620.5543             TOTAL OUT =       90661.2206

            IN - OUT =          -1.9528              IN - OUT =      -7.7849E-03

 PERCENT DISCREPANCY =          -0.00     PERCENT DISCREPANCY =          -0.00






         TIME SUMMARY AT END OF TIME STEP    1 IN STRESS PERIOD    3
                    SECONDS     MINUTES      HOURS       DAYS        YEARS
                    -----------------------------------------------------------
   TIME STEP LENGTH 7.86240E+06 1.31040E+05  2184.0      91.000     0.24914    
 STRESS PERIOD TIME 7.86240E+06 1.31040E+05  2184.0      91.000     0.24914    
         TOTAL TIME 2.36736E+07 3.94560E+05  6576.0      274.00     0.75017    
1
1
                            STRESS PERIOD NO.    4, LENGTH =   91.00000    
                            -----------------------------------------------

                              NUMBER OF TIME STEPS =     1

                               MULTIPLIER FOR DELT =     1.500

                            INITIAL TIME STEP SIZE =   91.00000    

 WELL NO.  LAYER   ROW   COL   STRESS RATE         
 --------------------------------------------------
      1      1      8     21      -8122.    
      2      1      4     14      -6617.    
      3      1     10     23      -7449.    
      4      1     14     17     -0.1685E+05

      4 WELLS

                 RECHARGE =  1.000000E-03

 REUSING STREAM SEGMENT DATA FROM LAST STRESS PERIOD
 
 SOLVING FOR HEAD 


     6 CALLS TO PCG ROUTINE FOR TIME STEP   1 IN STRESS PERIOD    4
    23 TOTAL ITERATIONS

 OUTPUT CONTROL FOR STRESS PERIOD    4   TIME STEP    1
    SAVE BUDGET
    SAVE HEAD FOR ALL LAYERS
    PRINT HEAD FOR ALL LAYERS
 UBDSV2 SAVING "STREAMFLOW OUT  " ON UNIT  50 AT TIME STEP  1, STRESS PERIOD   4



 STREAM LISTING     PERIOD      4   STEP        1

 LAYER ROW COL. STREAM  RCH.  FLOW INTO     FLOW TO   FLOW OUT OF   OVRLND.     DIRECT     STREAM       STREAM     STREAM     STREAM   STREAMBED  STREAMBED
                SEG.NO.  NO.  STRM. RCH.    AQUIFER    STRM. RCH.    RUNOFF     PRECIP       ET          HEAD       DEPTH      WIDTH   CONDCTNC.   GRADIENT

   1   13    1     1     1    1.0000E+05 -2.4206E+03   1.0242E+05  0.000E+00  0.000E+00  0.000E+00  4.84071E+01  1.457E-01  2.000E+01  2.000E+04 -1.210E-01
   1   13    2     1     2    1.0242E+05 -3.4835E+03   1.0590E+05  0.000E+00  0.000E+00  0.000E+00  4.79323E+01  1.482E-01  2.000E+01  2.000E+04 -1.742E-01
   1   14    3     1     3    1.0590E+05 -6.1848E+02   1.0652E+05  0.000E+00  0.000E+00  0.000E+00  4.74568E+01  1.500E-01  2.000E+01  2.000E+04 -3.092E-02
   1   15    4     1     4    1.0652E+05 -5.9430E+02   1.0712E+05  0.000E+00  0.000E+00  0.000E+00  4.69800E+01  1.505E-01  2.000E+01  2.000E+04 -2.971E-02
   1   16    5     1     5    1.0712E+05 -2.1361E+03   1.0925E+05  0.000E+00  0.000E+00  0.000E+00  4.65039E+01  1.516E-01  2.000E+01  2.000E+04 -1.068E-01
   1   16    6     1     6    1.0925E+05 -1.3368E+03   1.1059E+05  0.000E+00  0.000E+00  0.000E+00  4.60281E+01  1.531E-01  2.000E+01  2.000E+04 -6.684E-02
   1   16    7     1     7    1.1059E+05 -1.3055E+03   1.1190E+05  0.000E+00  0.000E+00  0.000E+00  4.55519E+01  1.542E-01  2.000E+01  2.000E+04 -6.527E-02
   1   16    8     1     8    1.1190E+05 -1.2888E+03   1.1318E+05  0.000E+00  0.000E+00  0.000E+00  4.50757E+01  1.553E-01  2.000E+01  2.000E+04 -6.444E-02
   1   16    9     1     9    1.1318E+05 -1.2604E+03   1.1444E+05  0.000E+00  0.000E+00  0.000E+00  4.45995E+01  1.563E-01  2.000E+01  2.000E+04 -6.302E-02
   1   16   10     1    10    1.1444E+05 -1.2155E+03   1.1566E+05  0.000E+00  0.000E+00  0.000E+00  4.41233E+01  1.573E-01  2.000E+01  2.000E+04 -6.078E-02
   1   16   11     1    11    1.1566E+05 -1.1665E+03   1.1683E+05  0.000E+00  0.000E+00  0.000E+00  4.36470E+01  1.583E-01  2.000E+01  2.000E+04 -5.833E-02
   1   16   12     1    12    1.1683E+05 -1.7552E+03   1.1858E+05  0.000E+00  0.000E+00  0.000E+00  4.31709E+01  1.595E-01  2.000E+01  2.000E+04 -8.776E-02
   1   15   13     1    13    1.1858E+05 -1.2882E+03   1.1987E+05  0.000E+00  0.000E+00  0.000E+00  4.26948E+01  1.607E-01  2.000E+01  2.000E+04 -6.441E-02
   1   14   14     1    14    1.1987E+05 -6.6029E+02   1.2053E+05  0.000E+00  0.000E+00  0.000E+00  4.22184E+01  1.615E-01  2.000E+01  2.000E+04 -3.301E-02
   1   13   15     1    15    1.2053E+05  7.6695E+01   1.2045E+05  0.000E+00  0.000E+00  0.000E+00  4.17413E+01  1.618E-01  2.000E+01  2.000E+04  3.835E-03
   1   12   16     1    16    1.2045E+05 -1.1758E+03   1.2163E+05  0.000E+00  0.000E+00  0.000E+00  4.12645E+01  1.622E-01  2.000E+01  2.000E+04 -5.879E-02
   1   12   17     1    17    1.2163E+05  9.2453E+02   1.2070E+05  0.000E+00  0.000E+00  0.000E+00  4.07873E+01  1.623E-01  2.000E+01  2.000E+04  4.623E-02
   1   12   18     1    18    1.2070E+05  3.0806E+02   1.2040E+05  0.000E+00  0.000E+00  0.000E+00  4.03095E+01  1.618E-01  2.000E+01  2.000E+04  1.540E-02
   1   12   19     1    19    1.2040E+05 -3.5669E+02   1.2075E+05  0.000E+00  0.000E+00  0.000E+00  3.98323E+01  1.618E-01  2.000E+01  2.000E+04 -1.783E-02
   1   13   20     1    20    1.2075E+05  2.5194E+02   1.2050E+05  0.000E+00  0.000E+00  0.000E+00  3.93551E+01  1.619E-01  2.000E+01  2.000E+04  1.260E-02
   1   14   21     1    21    1.2050E+05 -5.7811E+02   1.2108E+05  0.000E+00  0.000E+00  0.000E+00  3.88779E+01  1.620E-01  2.000E+01  2.000E+04 -2.891E-02
   1   14   22     1    22    1.2108E+05  5.0236E+03   1.1606E+05  0.000E+00  0.000E+00  0.000E+00  3.83989E+01  1.602E-01  2.000E+01  2.000E+04  2.512E-01
   1    9   30     2     1    5.0000E+04 -6.2013E+02   5.0620E+04  0.000E+00  0.000E+00  0.000E+00  4.02413E+01  1.163E-01  2.000E+01  2.000E+04 -3.101E-02
   1    9   29     2     2    5.0620E+04 -8.8670E+02   5.1507E+04  0.000E+00  0.000E+00  0.000E+00  3.99923E+01  1.173E-01  2.000E+01  2.000E+04 -4.434E-02
   1    9   28     2     3    5.1507E+04 -1.0528E+03   5.2560E+04  0.000E+00  0.000E+00  0.000E+00  3.97437E+01  1.187E-01  2.000E+01  2.000E+04 -5.264E-02
   1    9   27     2     4    5.2560E+04 -1.7397E+03   5.4299E+04  0.000E+00  0.000E+00  0.000E+00  3.94956E+01  1.206E-01  2.000E+01  2.000E+04 -8.698E-02
   1   10   26     2     5    5.4299E+04 -4.8586E+02   5.4785E+04  0.000E+00  0.000E+00  0.000E+00  3.92471E+01  1.221E-01  2.000E+01  2.000E+04 -2.429E-02
   1   11   25     2     6    5.4785E+04  2.8686E+02   5.4498E+04  0.000E+00  0.000E+00  0.000E+00  3.89972E+01  1.222E-01  2.000E+01  2.000E+04  1.434E-02
   1   12   24     2     7    5.4498E+04  4.1564E+02   5.4083E+04  0.000E+00  0.000E+00  0.000E+00  3.87467E+01  1.217E-01  2.000E+01  2.000E+04  2.078E-02
   1   13   23     2     8    5.4083E+04 -4.1037E+00   5.4087E+04  0.000E+00  0.000E+00  0.000E+00  3.84965E+01  1.215E-01  2.000E+01  2.000E+04 -2.052E-04
   1   14   22     2     9    5.4087E+04  1.9494E+03   5.2137E+04  0.000E+00  0.000E+00  0.000E+00  3.82451E+01  1.201E-01  2.000E+01  2.000E+04  9.747E-02
   1   14   22     3     1    1.6819E+05 -8.5132E+03   1.7671E+05  0.000E+00  0.000E+00  0.000E+00  3.77220E+01  1.665E-01  2.000E+01  2.000E+04 -4.257E-01
   1   15   23     3     2    1.7671E+05 -5.4483E+02   1.7725E+05  0.000E+00  0.000E+00  0.000E+00  3.68357E+01  1.691E-01  2.000E+01  2.000E+04 -2.724E-02
   1   15   24     3     3    1.7725E+05 -3.2555E+02   1.7758E+05  0.000E+00  0.000E+00  0.000E+00  3.59471E+01  1.693E-01  2.000E+01  2.000E+04 -1.628E-02
   1   15   25     3     4    1.7758E+05 -3.2315E+02   1.7790E+05  0.000E+00  0.000E+00  0.000E+00  3.50584E+01  1.695E-01  2.000E+01  2.000E+04 -1.616E-02
   1   15   26     3     5    1.7790E+05 -3.7411E+02   1.7827E+05  0.000E+00  0.000E+00  0.000E+00  3.41697E+01  1.697E-01  2.000E+01  2.000E+04 -1.871E-02
   1   16   27     3     6    1.7827E+05 -4.2757E+02   1.7870E+05  0.000E+00  0.000E+00  0.000E+00  3.32810E+01  1.699E-01  2.000E+01  2.000E+04 -2.138E-02
   1   17   28     3     7    1.7870E+05 -1.7606E+03   1.8046E+05  0.000E+00  0.000E+00  0.000E+00  3.23928E+01  1.706E-01  2.000E+01  2.000E+04 -8.803E-02
   1   18   29     3     8    1.8046E+05 -3.2734E+03   1.8374E+05  0.000E+00  0.000E+00  0.000E+00  3.15053E+01  1.720E-01  2.000E+01  2.000E+04 -1.637E-01
   1   18   30     3     9    1.8374E+05 -3.4125E+03   1.8715E+05  0.000E+00  0.000E+00  0.000E+00  3.06183E+01  1.739E-01  2.000E+01  2.000E+04 -1.706E-01



1
              HEAD IN LAYER   1 AT END OF TIME STEP   1 IN STRESS PERIOD    4
  ---------------------------------------------------------------------------

          1      2      3      4      5      6      7      8      9     10
         11     12     13     14     15     16     17     18     19     20
         21     22     23     24     25     26     27     28     29     30
 .........................................................................
   1  ****** ****** ****** ****** ****** ****** ****** ****** ****** ******
      ****** ****** ****** ****** ****** ****** ****** ****** ****** ******
      ****** ****** ****** ****** ****** ****** ****** ****** ****** ******
   2  ****** ****** ****** ****** ****** ****** ****** ****** ****** ******
      ****** ****** ****** ****** ****** ****** ****** ****** ****** ******
      ****** ****** ****** ****** ****** ****** ****** ****** ****** ******
   3  ****** ****** ****** ****** ****** ****** ****** ****** ****** ******
      ****** ****** ****** ****** ****** ****** ****** ****** ****** ******
      ****** ****** ****** ****** ****** ****** ****** ****** ****** ******
   4  ****** ****** ****** ****** ****** ****** ****** ****** ****** ******
      ****** ****** ****** ****** ****** ****** ****** ****** ****** ******
      ****** ****** ****** ****** ****** ****** ****** ****** ****** ******
   5  ****** ****** ****** ****** ****** ****** ****** ****** ****** ******
      ****** ****** ****** ****** ****** ****** ****** ****** ****** ******
      ****** ****** ****** ****** ****** ****** ****** ****** ****** ******
   6  ****** ****** ****** ****** ****** ****** ****** ****** ****** ******
      ****** ****** ****** ****** ****** ****** ****** ****** ****** ******
      ****** ****** ****** ****** ****** ****** ****** ****** ****** ******
   7  ****** ****** ****** ****** ****** ****** ****** ****** ****** ******
      ****** ****** ****** ****** ****** ****** ****** ****** ****** ******
      ****** ****** ****** ****** ****** ****** ****** ****** ****** ******
   8  ****** ****** ****** ****** ****** ****** ****** ****** ****** ******
      ****** ****** ****** ****** ****** ****** ****** ****** ****** ******
      ****** ****** ****** ****** ****** ****** ****** ****** ****** ******
   9  ****** ****** ****** ****** ****** ****** ****** ****** ****** ******
      ****** ****** ****** ****** ****** ****** ****** ****** ****** ******
      ****** ****** ****** ****** ****** ****** ****** ****** ****** ******
  10  ****** ****** ****** ****** ****** ****** ****** ****** ****** ******
      ****** ****** ****** ****** ****** ****** ****** ****** ****** ******
      ****** ****** ****** ****** ****** ****** ****** ****** ****** ******
  11  ****** ****** ****** ****** ****** ****** ****** ****** ****** ******
      ****** ****** ****** ****** ****** ****** ****** ****** ****** ******
      ****** ****** ****** ****** ****** ****** ****** ****** ****** ******
  12  ****** ****** ****** ****** ****** ****** ****** ****** ****** ******
      ****** ****** ****** ****** ****** ****** ****** ****** ****** ******
      ****** ****** ****** ****** ****** ****** ****** ****** ****** ******
  13  ****** ****** ****** ****** ****** ****** ****** ****** ****** ******
      ****** ****** ****** ****** ****** ****** ****** ****** ****** ******
      ****** ****** ****** ****** ****** ****** ****** ****** ****** ******
  14  ****** ****** ****** ****** ****** ****** ****** ****** ****** ******
      ****** ****** ****** ****** ****** ****** ****** ****** ****** ******
      ****** ****** ****** ****** ****** ****** ****** ****** ****** ******
  15  ****** ****** ****** ****** ****** ****** ****** ****** ****** ******
      ****** ****** ****** ****** ****** ****** ****** ****** ****** ******
      ****** ****** ****** ****** ****** ****** ****** ****** ****** ******
  16  ****** ****** ****** ****** ****** ****** ****** ****** ****** ******
      ****** ****** ****** ****** ****** ****** ****** ****** ****** ******
      ****** ****** ****** ****** ****** ****** ****** ****** ****** ******
  17  ****** ****** ****** ****** ****** ****** ****** ****** ****** ******
      ****** ****** ****** ****** ****** ****** ****** ****** ****** ******
      ****** ****** ****** ****** ****** ****** ****** ****** ****** ******
  18  ****** ****** ****** ****** ****** ****** ****** ****** ****** ******
      ****** ****** ****** ****** ****** ****** ****** ****** ****** ******
      ****** ****** ****** ****** ****** ****** ****** ****** ****** ******
  19  ****** ****** ****** ****** ****** ****** ****** ****** ****** ******
      ****** ****** ****** ****** ****** ****** ****** ****** ****** ******
      ****** ****** ****** ****** ****** ****** ****** ****** ****** ******
  20  ****** ****** ****** ****** ****** ****** ****** ****** ****** ******
      ****** ****** ****** ****** ****** ****** ****** ****** ****** ******
      ****** ****** ****** ****** ****** ****** ****** ****** ****** ******
  21  ****** ****** ****** ****** ****** ****** ****** ****** ****** ******
      ****** ****** ****** ****** ****** ****** ****** ****** ****** ******
      ****** ****** ****** ****** ****** ****** ****** ****** ****** ******
  22  ****** ****** ****** ****** ****** ****** ****** ****** ****** ******
      ****** ****** ****** ****** ****** ****** ****** ****** ****** ******
      ****** ****** ****** ****** ****** ****** ****** ****** ****** ******
  23  ****** ****** ****** ****** ****** ****** ****** ****** ****** ******
      ****** ****** ****** ****** ****** ****** ****** ****** ****** ******
      ****** ****** ****** ****** ****** ****** ****** ****** ****** ******
  24  ****** ****** ****** ****** ****** ****** ****** ****** ****** ******
      ****** ****** ****** ****** ****** ****** ****** ****** ****** ******
      ****** ****** ****** ****** ****** ****** ****** ****** ****** ******
  25  ****** ****** ****** ****** ****** ****** ****** ****** ****** ******
      ****** ****** ****** ****** ****** ****** ****** ****** ****** ******
      ****** ****** ****** ****** ****** ****** ****** ****** ****** ******

 HEAD WILL BE SAVED ON UNIT   51 AT END OF TIME STEP    1, STRESS PERIOD    4
1
  VOLUMETRIC BUDGET FOR ENTIRE MODEL AT END OF TIME STEP    1, STRESS PERIOD   4
  ------------------------------------------------------------------------------

     CUMULATIVE VOLUMES      L**3       RATES FOR THIS TIME STEP      L**3/T
     ------------------                 ------------------------

           IN:                                      IN:
           ---                                      ---
             STORAGE =    29923794.7489               STORAGE =       19536.6243
       CONSTANT HEAD =     7821984.0800         CONSTANT HEAD =       29066.2012
               WELLS =           0.0000                 WELLS =           0.0000
            RECHARGE =     8804400.0000              RECHARGE =       27600.0000
      STREAM LEAKAGE =     2502444.9791        STREAM LEAKAGE =        9236.7922

            TOTAL IN =    49052623.8080              TOTAL IN =       85439.6177

          OUT:                                     OUT:
          ----                                     ----
             STORAGE =        1155.7033               STORAGE =          12.7000
       CONSTANT HEAD =           0.0000         CONSTANT HEAD =           0.0000
               WELLS =    14250351.8200                 WELLS =       39042.0598
            RECHARGE =           0.0000              RECHARGE =           0.0000
      STREAM LEAKAGE =    34801118.3177        STREAM LEAKAGE =       46384.8587

           TOTAL OUT =    49052625.8411             TOTAL OUT =       85439.6185

            IN - OUT =          -2.0331              IN - OUT =      -8.8196E-04

 PERCENT DISCREPANCY =          -0.00     PERCENT DISCREPANCY =          -0.00






         TIME SUMMARY AT END OF TIME STEP    1 IN STRESS PERIOD    4
                    SECONDS     MINUTES      HOURS       DAYS        YEARS
                    -----------------------------------------------------------
   TIME STEP LENGTH 7.86240E+06 1.31040E+05  2184.0      91.000     0.24914    
 STRESS PERIOD TIME 7.86240E+06 1.31040E+05  2184.0      91.000     0.24914    
         TOTAL TIME 3.15360E+07 5.25600E+05  8760.0      365.00     0.99932    
1
1
                            STRESS PERIOD NO.    5, LENGTH =   92.00000    
                            -----------------------------------------------

                              NUMBER OF TIME STEPS =     1

                               MULTIPLIER FOR DELT =     1.500

                            INITIAL TIME STEP SIZE =   92.00000    

 WELL NO.  LAYER   ROW   COL   STRESS RATE         
 --------------------------------------------------
      1      1      8     21      -8122.    
      2      1      4     14      -6617.    
      3      1     10     23      -7449.    
      4      1     14     17     -0.1685E+05

      4 WELLS

                 RECHARGE =  5.000000E-04

 REUSING STREAM SEGMENT DATA FROM LAST STRESS PERIOD
 
 SOLVING FOR HEAD 


     7 CALLS TO PCG ROUTINE FOR TIME STEP   1 IN STRESS PERIOD    5
    26 TOTAL ITERATIONS

 OUTPUT CONTROL FOR STRESS PERIOD    5   TIME STEP    1
    SAVE BUDGET
    SAVE HEAD FOR ALL LAYERS
    PRINT HEAD FOR ALL LAYERS
 UBDSV2 SAVING "STREAMFLOW OUT  " ON UNIT  50 AT TIME STEP  1, STRESS PERIOD   5



 STREAM LISTING     PERIOD      5   STEP        1

 LAYER ROW COL. STREAM  RCH.  FLOW INTO     FLOW TO   FLOW OUT OF   OVRLND.     DIRECT     STREAM       STREAM     STREAM     STREAM   STREAMBED  STREAMBED
                SEG.NO.  NO.  STRM. RCH.    AQUIFER    STRM. RCH.    RUNOFF     PRECIP       ET          HEAD       DEPTH      WIDTH   CONDCTNC.   GRADIENT

   1   13    1     1     1    1.0000E+05 -1.9847E+03   1.0198E+05  0.000E+00  0.000E+00  0.000E+00  4.84069E+01  1.455E-01  2.000E+01  2.000E+04 -9.923E-02
   1   13    2     1     2    1.0198E+05 -2.9910E+03   1.0498E+05  0.000E+00  0.000E+00  0.000E+00  4.79317E+01  1.477E-01  2.000E+01  2.000E+04 -1.496E-01
   1   14    3     1     3    1.0498E+05 -4.9389E+02   1.0547E+05  0.000E+00  0.000E+00  0.000E+00  4.74560E+01  1.491E-01  2.000E+01  2.000E+04 -2.469E-02
   1   15    4     1     4    1.0547E+05 -4.6390E+02   1.0593E+05  0.000E+00  0.000E+00  0.000E+00  4.69791E+01  1.495E-01  2.000E+01  2.000E+04 -2.320E-02
   1   16    5     1     5    1.0593E+05 -1.7049E+03   1.0764E+05  0.000E+00  0.000E+00  0.000E+00  4.65027E+01  1.505E-01  2.000E+01  2.000E+04 -8.524E-02
   1   16    6     1     6    1.0764E+05 -1.0835E+03   1.0872E+05  0.000E+00  0.000E+00  0.000E+00  4.60266E+01  1.516E-01  2.000E+01  2.000E+04 -5.417E-02
   1   16    7     1     7    1.0872E+05 -1.0623E+03   1.0978E+05  0.000E+00  0.000E+00  0.000E+00  4.55503E+01  1.525E-01  2.000E+01  2.000E+04 -5.311E-02
   1   16    8     1     8    1.0978E+05 -1.0491E+03   1.1083E+05  0.000E+00  0.000E+00  0.000E+00  4.50739E+01  1.534E-01  2.000E+01  2.000E+04 -5.245E-02
   1   16    9     1     9    1.1083E+05 -1.0237E+03   1.1186E+05  0.000E+00  0.000E+00  0.000E+00  4.45975E+01  1.543E-01  2.000E+01  2.000E+04 -5.118E-02
   1   16   10     1    10    1.1186E+05 -9.8249E+02   1.1284E+05  0.000E+00  0.000E+00  0.000E+00  4.41210E+01  1.551E-01  2.000E+01  2.000E+04 -4.912E-02
   1   16   11     1    11    1.1284E+05 -9.3340E+02   1.1377E+05  0.000E+00  0.000E+00  0.000E+00  4.36445E+01  1.559E-01  2.000E+01  2.000E+04 -4.667E-02
   1   16   12     1    12    1.1377E+05 -1.3356E+03   1.1511E+05  0.000E+00  0.000E+00  0.000E+00  4.31682E+01  1.568E-01  2.000E+01  2.000E+04 -6.678E-02
   1   15   13     1    13    1.1511E+05 -8.3828E+02   1.1595E+05  0.000E+00  0.000E+00  0.000E+00  4.26918E+01  1.577E-01  2.000E+01  2.000E+04 -4.191E-02
   1   14   14     1    14    1.1595E+05 -1.7552E+02   1.1612E+05  0.000E+00  0.000E+00  0.000E+00  4.22150E+01  1.582E-01  2.000E+01  2.000E+04 -8.776E-03
   1   13   15     1    15    1.1612E+05  5.8626E+02   1.1554E+05  0.000E+00  0.000E+00  0.000E+00  4.17375E+01  1.580E-01  2.000E+01  2.000E+04  2.931E-02
   1   12   16     1    16    1.1554E+05 -6.0564E+02   1.1614E+05  0.000E+00  0.000E+00  0.000E+00  4.12603E+01  1.580E-01  2.000E+01  2.000E+04 -3.028E-02
   1   12   17     1    17    1.1614E+05  1.3026E+03   1.1484E+05  0.000E+00  0.000E+00  0.000E+00  4.07827E+01  1.577E-01  2.000E+01  2.000E+04  6.513E-02
   1   12   18     1    18    1.1484E+05  6.6681E+02   1.1417E+05  0.000E+00  0.000E+00  0.000E+00  4.03046E+01  1.569E-01  2.000E+01  2.000E+04  3.334E-02
   1   12   19     1    19    1.1417E+05  8.0647E+01   1.1409E+05  0.000E+00  0.000E+00  0.000E+00  3.98270E+01  1.566E-01  2.000E+01  2.000E+04  4.032E-03
   1   13   20     1    20    1.1409E+05  6.2016E+02   1.1347E+05  0.000E+00  0.000E+00  0.000E+00  3.93495E+01  1.563E-01  2.000E+01  2.000E+04  3.101E-02
   1   14   21     1    21    1.1347E+05 -1.9535E+02   1.1367E+05  0.000E+00  0.000E+00  0.000E+00  3.88720E+01  1.561E-01  2.000E+01  2.000E+04 -9.767E-03
   1   14   22     1    22    1.1367E+05  5.1029E+03   1.0856E+05  0.000E+00  0.000E+00  0.000E+00  3.83927E+01  1.541E-01  2.000E+01  2.000E+04  2.551E-01
   1    9   30     2     1    5.0000E+04 -3.7836E+02   5.0378E+04  0.000E+00  0.000E+00  0.000E+00  4.02411E+01  1.161E-01  2.000E+01  2.000E+04 -1.892E-02
   1    9   29     2     2    5.0378E+04 -6.4066E+02   5.1019E+04  0.000E+00  0.000E+00  0.000E+00  3.99918E+01  1.168E-01  2.000E+01  2.000E+04 -3.203E-02
   1    9   28     2     3    5.1019E+04 -7.9297E+02   5.1812E+04  0.000E+00  0.000E+00  0.000E+00  3.97428E+01  1.178E-01  2.000E+01  2.000E+04 -3.965E-02
   1    9   27     2     4    5.1812E+04 -1.3243E+03   5.3136E+04  0.000E+00  0.000E+00  0.000E+00  3.94943E+01  1.193E-01  2.000E+01  2.000E+04 -6.622E-02
   1   10   26     2     5    5.3136E+04 -1.2549E+02   5.3262E+04  0.000E+00  0.000E+00  0.000E+00  3.92453E+01  1.203E-01  2.000E+01  2.000E+04 -6.275E-03
   1   11   25     2     6    5.3262E+04  6.1727E+02   5.2645E+04  0.000E+00  0.000E+00  0.000E+00  3.89949E+01  1.199E-01  2.000E+01  2.000E+04  3.086E-02
   1   12   24     2     7    5.2645E+04  7.1836E+02   5.1926E+04  0.000E+00  0.000E+00  0.000E+00  3.87440E+01  1.190E-01  2.000E+01  2.000E+04  3.592E-02
   1   13   23     2     8    5.1926E+04  6.7169E+01   5.1859E+04  0.000E+00  0.000E+00  0.000E+00  3.84935E+01  1.185E-01  2.000E+01  2.000E+04  3.358E-03
   1   14   22     2     9    5.1859E+04  2.0882E+03   4.9771E+04  0.000E+00  0.000E+00  0.000E+00  3.82420E+01  1.170E-01  2.000E+01  2.000E+04  1.044E-01
   1   14   22     3     1    1.5833E+05 -8.4275E+03   1.6676E+05  0.000E+00  0.000E+00  0.000E+00  3.77162E+01  1.607E-01  2.000E+01  2.000E+04 -4.214E-01
   1   15   23     3     2    1.6676E+05 -4.4590E+02   1.6721E+05  0.000E+00  0.000E+00  0.000E+00  3.68299E+01  1.633E-01  2.000E+01  2.000E+04 -2.229E-02
   1   15   24     3     3    1.6721E+05 -2.5319E+02   1.6746E+05  0.000E+00  0.000E+00  0.000E+00  3.59413E+01  1.635E-01  2.000E+01  2.000E+04 -1.266E-02
   1   15   25     3     4    1.6746E+05 -2.5148E+02   1.6771E+05  0.000E+00  0.000E+00  0.000E+00  3.50525E+01  1.636E-01  2.000E+01  2.000E+04 -1.257E-02
   1   15   26     3     5    1.6771E+05 -3.0177E+02   1.6801E+05  0.000E+00  0.000E+00  0.000E+00  3.41638E+01  1.638E-01  2.000E+01  2.000E+04 -1.509E-02
   1   16   27     3     6    1.6801E+05 -3.3666E+02   1.6835E+05  0.000E+00  0.000E+00  0.000E+00  3.32751E+01  1.640E-01  2.000E+01  2.000E+04 -1.683E-02
   1   17   28     3     7    1.6835E+05 -1.4914E+03   1.6984E+05  0.000E+00  0.000E+00  0.000E+00  3.23867E+01  1.645E-01  2.000E+01  2.000E+04 -7.457E-02
   1   18   29     3     8    1.6984E+05 -2.8966E+03   1.7274E+05  0.000E+00  0.000E+00  0.000E+00  3.14991E+01  1.658E-01  2.000E+01  2.000E+04 -1.448E-01
   1   18   30     3     9    1.7274E+05 -3.1533E+03   1.7589E+05  0.000E+00  0.000E+00  0.000E+00  3.06120E+01  1.675E-01  2.000E+01  2.000E+04 -1.577E-01



1
              HEAD IN LAYER   1 AT END OF TIME STEP   1 IN STRESS PERIOD    5
  ---------------------------------------------------------------------------

          1      2      3      4      5      6      7      8      9     10
         11     12     13     14     15     16     17     18     19     20
         21     22     23     24     25     26     27     28     29     30
 .........................................................................
   1  ****** ****** ****** ****** ****** ****** ****** ****** ****** ******
      ****** ****** ****** ****** ****** ****** ****** ****** ****** ******
      ****** ****** ****** ****** ****** ****** ****** ****** ****** ******
   2  ****** ****** ****** ****** ****** ****** ****** ****** ****** ******
      ****** ****** ****** ****** ****** ****** ****** ****** ****** ******
      ****** ****** ****** ****** ****** ****** ****** ****** ****** ******
   3  ****** ****** ****** ****** ****** ****** ****** ****** ****** ******
      ****** ****** ****** ****** ****** ****** ****** ****** ****** ******
      ****** ****** ****** ****** ****** ****** ****** ****** ****** ******
   4  ****** ****** ****** ****** ****** ****** ****** ****** ****** ******
      ****** ****** ****** ****** ****** ****** ****** ****** ****** ******
      ****** ****** ****** ****** ****** ****** ****** ****** ****** ******
   5  ****** ****** ****** ****** ****** ****** ****** ****** ****** ******
      ****** ****** ****** ****** ****** ****** ****** ****** ****** ******
      ****** ****** ****** ****** ****** ****** ****** ****** ****** ******
   6  ****** ****** ****** ****** ****** ****** ****** ****** ****** ******
      ****** ****** ****** ****** ****** ****** ****** ****** ****** ******
      ****** ****** ****** ****** ****** ****** ****** ****** ****** ******
   7  ****** ****** ****** ****** ****** ****** ****** ****** ****** ******
      ****** ****** ****** ****** ****** ****** ****** ****** ****** ******
      ****** ****** ****** ****** ****** ****** ****** ****** ****** ******
   8  ****** ****** ****** ****** ****** ****** ****** ****** ****** ******
      ****** ****** ****** ****** ****** ****** ****** ****** ****** ******
      ****** ****** ****** ****** ****** ****** ****** ****** ****** ******
   9  ****** ****** ****** ****** ****** ****** ****** ****** ****** ******
      ****** ****** ****** ****** ****** ****** ****** ****** ****** ******
      ****** ****** ****** ****** ****** ****** ****** ****** ****** ******
  10  ****** ****** ****** ****** ****** ****** ****** ****** ****** ******
      ****** ****** ****** ****** ****** ****** ****** ****** ****** ******
      ****** ****** ****** ****** ****** ****** ****** ****** ****** ******
  11  ****** ****** ****** ****** ****** ****** ****** ****** ****** ******
      ****** ****** ****** ****** ****** ****** ****** ****** ****** ******
      ****** ****** ****** ****** ****** ****** ****** ****** ****** ******
  12  ****** ****** ****** ****** ****** ****** ****** ****** ****** ******
      ****** ****** ****** ****** ****** ****** ****** ****** ****** ******
      ****** ****** ****** ****** ****** ****** ****** ****** ****** ******
  13  ****** ****** ****** ****** ****** ****** ****** ****** ****** ******
      ****** ****** ****** ****** ****** ****** ****** ****** ****** ******
      ****** ****** ****** ****** ****** ****** ****** ****** ****** ******
  14  ****** ****** ****** ****** ****** ****** ****** ****** ****** ******
      ****** ****** ****** ****** ****** ****** ****** ****** ****** ******
      ****** ****** ****** ****** ****** ****** ****** ****** ****** ******
  15  ****** ****** ****** ****** ****** ****** ****** ****** ****** ******
      ****** ****** ****** ****** ****** ****** ****** ****** ****** ******
      ****** ****** ****** ****** ****** ****** ****** ****** ****** ******
  16  ****** ****** ****** ****** ****** ****** ****** ****** ****** ******
      ****** ****** ****** ****** ****** ****** ****** ****** ****** ******
      ****** ****** ****** ****** ****** ****** ****** ****** ****** ******
  17  ****** ****** ****** ****** ****** ****** ****** ****** ****** ******
      ****** ****** ****** ****** ****** ****** ****** ****** ****** ******
      ****** ****** ****** ****** ****** ****** ****** ****** ****** ******
  18  ****** ****** ****** ****** ****** ****** ****** ****** ****** ******
      ****** ****** ****** ****** ****** ****** ****** ****** ****** ******
      ****** ****** ****** ****** ****** ****** ****** ****** ****** ******
  19  ****** ****** ****** ****** ****** ****** ****** ****** ****** ******
      ****** ****** ****** ****** ****** ****** ****** ****** ****** ******
      ****** ****** ****** ****** ****** ****** ****** ****** ****** ******
  20  ****** ****** ****** ****** ****** ****** ****** ****** ****** ******
      ****** ****** ****** ****** ****** ****** ****** ****** ****** ******
      ****** ****** ****** ****** ****** ****** ****** ****** ****** ******
  21  ****** ****** ****** ****** ****** ****** ****** ****** ****** ******
      ****** ****** ****** ****** ****** ****** ****** ****** ****** ******
      ****** ****** ****** ****** ****** ****** ****** ****** ****** ******
  22  ****** ****** ****** ****** ****** ****** ****** ****** ****** ******
      ****** ****** ****** ****** ****** ****** ****** ****** ****** ******
      ****** ****** ****** ****** ****** ****** ****** ****** ****** ******
  23  ****** ****** ****** ****** ****** ****** ****** ****** ****** ******
      ****** ****** ****** ****** ****** ****** ****** ****** ****** ******
      ****** ****** ****** ****** ****** ****** ****** ****** ****** ******
  24  ****** ****** ****** ****** ****** ****** ****** ****** ****** ******
      ****** ****** ****** ****** ****** ****** ****** ****** ****** ******
      ****** ****** ****** ****** ****** ****** ****** ****** ****** ******
  25  ****** ****** ****** ****** ****** ****** ****** ****** ****** ******
      ****** ****** ****** ****** ****** ****** ****** ****** ****** ******
      ****** ****** ****** ****** ****** ****** ****** ****** ****** ******

 HEAD WILL BE SAVED ON UNIT   51 AT END OF TIME STEP    1, STRESS PERIOD    5
1
  VOLUMETRIC BUDGET FOR ENTIRE MODEL AT END OF TIME STEP    1, STRESS PERIOD   5
  ------------------------------------------------------------------------------

     CUMULATIVE VOLUMES      L**3       RATES FOR THIS TIME STEP      L**3/T
     ------------------                 ------------------------

           IN:                                      IN:
           ---                                      ---
             STORAGE =    31676164.4094               STORAGE =       19047.4963
       CONSTANT HEAD =    10773985.5001         CONSTANT HEAD =       32086.9720
               WELLS =           0.0000                 WELLS =           0.0000
            RECHARGE =    10074000.0000              RECHARGE =       13800.0000
      STREAM LEAKAGE =     3592677.3544        STREAM LEAKAGE =       11850.3519

            TOTAL IN =    56116827.2639              TOTAL IN =       76784.8202

          OUT:                                     OUT:
          ----                                     ----
             STORAGE =        1155.7033               STORAGE =           0.0000
       CONSTANT HEAD =           0.0000         CONSTANT HEAD =           0.0000
               WELLS =    17842221.3199                 WELLS =       39042.0598
            RECHARGE =           0.0000              RECHARGE =           0.0000
      STREAM LEAKAGE =    38273452.5812        STREAM LEAKAGE =       37742.7637

           TOTAL OUT =    56116829.6044             TOTAL OUT =       76784.8235

            IN - OUT =          -2.3405              IN - OUT =      -3.3418E-03

 PERCENT DISCREPANCY =          -0.00     PERCENT DISCREPANCY =          -0.00






         TIME SUMMARY AT END OF TIME STEP    1 IN STRESS PERIOD    5
                    SECONDS     MINUTES      HOURS       DAYS        YEARS
                    -----------------------------------------------------------
   TIME STEP LENGTH 7.94880E+06 1.32480E+05  2208.0      92.000     0.25188    
 STRESS PERIOD TIME 7.94880E+06 1.32480E+05  2208.0      92.000     0.25188    
         TOTAL TIME 3.94848E+07 6.58080E+05  10968.      457.00      1.2512    
1
1
                            STRESS PERIOD NO.    6, LENGTH =   91.00000    
                            -----------------------------------------------

                              NUMBER OF TIME STEPS =     1

                               MULTIPLIER FOR DELT =     1.500

                            INITIAL TIME STEP SIZE =   91.00000    

 WELL NO.  LAYER   ROW   COL   STRESS RATE         
 --------------------------------------------------
      1      1      8     21      -8122.    
      2      1      4     14      -6617.    
      3      1     10     23      -7449.    
      4      1     14     17     -0.1685E+05

      4 WELLS

                 RECHARGE =  2.000000E-03

 REUSING STREAM SEGMENT DATA FROM LAST STRESS PERIOD
 
 SOLVING FOR HEAD 


     7 CALLS TO PCG ROUTINE FOR TIME STEP   1 IN STRESS PERIOD    6
    26 TOTAL ITERATIONS

 OUTPUT CONTROL FOR STRESS PERIOD    6   TIME STEP    1
    SAVE BUDGET
    SAVE HEAD FOR ALL LAYERS
    PRINT HEAD FOR ALL LAYERS
 UBDSV2 SAVING "STREAMFLOW OUT  " ON UNIT  50 AT TIME STEP  1, STRESS PERIOD   6



 STREAM LISTING     PERIOD      6   STEP        1

 LAYER ROW COL. STREAM  RCH.  FLOW INTO     FLOW TO   FLOW OUT OF   OVRLND.     DIRECT     STREAM       STREAM     STREAM     STREAM   STREAMBED  STREAMBED
                SEG.NO.  NO.  STRM. RCH.    AQUIFER    STRM. RCH.    RUNOFF     PRECIP       ET          HEAD       DEPTH      WIDTH   CONDCTNC.   GRADIENT

   1   13    1     1     1    1.0000E+05 -2.2836E+03   1.0228E+05  0.000E+00  0.000E+00  0.000E+00  4.84070E+01  1.456E-01  2.000E+01  2.000E+04 -1.142E-01
   1   13    2     1     2    1.0228E+05 -3.3177E+03   1.0560E+05  0.000E+00  0.000E+00  0.000E+00  4.79321E+01  1.480E-01  2.000E+01  2.000E+04 -1.659E-01
   1   14    3     1     3    1.0560E+05 -6.4676E+02   1.0625E+05  0.000E+00  0.000E+00  0.000E+00  4.74566E+01  1.497E-01  2.000E+01  2.000E+04 -3.234E-02
   1   15    4     1     4    1.0625E+05 -6.2881E+02   1.0688E+05  0.000E+00  0.000E+00  0.000E+00  4.69798E+01  1.503E-01  2.000E+01  2.000E+04 -3.144E-02
   1   16    5     1     5    1.0688E+05 -2.2011E+03   1.0908E+05  0.000E+00  0.000E+00  0.000E+00  4.65037E+01  1.515E-01  2.000E+01  2.000E+04 -1.101E-01
   1   16    6     1     6    1.0908E+05 -1.3738E+03   1.1045E+05  0.000E+00  0.000E+00  0.000E+00  4.60280E+01  1.530E-01  2.000E+01  2.000E+04 -6.869E-02
   1   16    7     1     7    1.1045E+05 -1.3371E+03   1.1179E+05  0.000E+00  0.000E+00  0.000E+00  4.55518E+01  1.541E-01  2.000E+01  2.000E+04 -6.685E-02
   1   16    8     1     8    1.1179E+05 -1.3193E+03   1.1311E+05  0.000E+00  0.000E+00  0.000E+00  4.50757E+01  1.552E-01  2.000E+01  2.000E+04 -6.596E-02
   1   16    9     1     9    1.1311E+05 -1.2935E+03   1.1440E+05  0.000E+00  0.000E+00  0.000E+00  4.45995E+01  1.563E-01  2.000E+01  2.000E+04 -6.468E-02
   1   16   10     1    10    1.1440E+05 -1.2543E+03   1.1566E+05  0.000E+00  0.000E+00  0.000E+00  4.41232E+01  1.573E-01  2.000E+01  2.000E+04 -6.271E-02
   1   16   11     1    11    1.1566E+05 -1.2089E+03   1.1686E+05  0.000E+00  0.000E+00  0.000E+00  4.36470E+01  1.583E-01  2.000E+01  2.000E+04 -6.044E-02
   1   16   12     1    12    1.1686E+05 -1.7793E+03   1.1864E+05  0.000E+00  0.000E+00  0.000E+00  4.31709E+01  1.596E-01  2.000E+01  2.000E+04 -8.896E-02
   1   15   13     1    13    1.1864E+05 -1.2863E+03   1.1993E+05  0.000E+00  0.000E+00  0.000E+00  4.26949E+01  1.608E-01  2.000E+01  2.000E+04 -6.432E-02
   1   14   14     1    14    1.1993E+05 -6.1416E+02   1.2054E+05  0.000E+00  0.000E+00  0.000E+00  4.22184E+01  1.616E-01  2.000E+01  2.000E+04 -3.071E-02
   1   13   15     1    15    1.2054E+05  1.7146E+02   1.2037E+05  0.000E+00  0.000E+00  0.000E+00  4.17413E+01  1.617E-01  2.000E+01  2.000E+04  8.573E-03
   1   12   16     1    16    1.2037E+05 -9.6594E+02   1.2134E+05  0.000E+00  0.000E+00  0.000E+00  4.12643E+01  1.621E-01  2.000E+01  2.000E+04 -4.830E-02
   1   12   17     1    17    1.2134E+05  1.0020E+03   1.2034E+05  0.000E+00  0.000E+00  0.000E+00  4.07870E+01  1.620E-01  2.000E+01  2.000E+04  5.010E-02
   1   12   18     1    18    1.2034E+05  3.6092E+02   1.1998E+05  0.000E+00  0.000E+00  0.000E+00  4.03092E+01  1.615E-01  2.000E+01  2.000E+04  1.805E-02
   1   12   19     1    19    1.1998E+05 -2.9865E+02   1.2027E+05  0.000E+00  0.000E+00  0.000E+00  3.98319E+01  1.615E-01  2.000E+01  2.000E+04 -1.493E-02
   1   13   20     1    20    1.2027E+05  2.0424E+02   1.2007E+05  0.000E+00  0.000E+00  0.000E+00  3.93547E+01  1.615E-01  2.000E+01  2.000E+04  1.021E-02
   1   14   21     1    21    1.2007E+05 -6.0621E+02   1.2068E+05  0.000E+00  0.000E+00  0.000E+00  3.88776E+01  1.617E-01  2.000E+01  2.000E+04 -3.031E-02
   1   14   22     1    22    1.2068E+05  4.9968E+03   1.1568E+05  0.000E+00  0.000E+00  0.000E+00  3.83985E+01  1.599E-01  2.000E+01  2.000E+04  2.498E-01
   1    9   30     2     1    5.0000E+04 -7.3685E+02   5.0737E+04  0.000E+00  0.000E+00  0.000E+00  4.02414E+01  1.164E-01  2.000E+01  2.000E+04 -3.684E-02
   1    9   29     2     2    5.0737E+04 -9.9443E+02   5.1731E+04  0.000E+00  0.000E+00  0.000E+00  3.99926E+01  1.176E-01  2.000E+01  2.000E+04 -4.972E-02
   1    9   28     2     3    5.1731E+04 -1.1390E+03   5.2870E+04  0.000E+00  0.000E+00  0.000E+00  3.97440E+01  1.190E-01  2.000E+01  2.000E+04 -5.695E-02
   1    9   27     2     4    5.2870E+04 -1.7570E+03   5.4627E+04  0.000E+00  0.000E+00  0.000E+00  3.94960E+01  1.210E-01  2.000E+01  2.000E+04 -8.785E-02
   1   10   26     2     5    5.4627E+04 -5.8509E+02   5.5212E+04  0.000E+00  0.000E+00  0.000E+00  3.92476E+01  1.226E-01  2.000E+01  2.000E+04 -2.925E-02
   1   11   25     2     6    5.5212E+04  1.7130E+02   5.5041E+04  0.000E+00  0.000E+00  0.000E+00  3.89979E+01  1.229E-01  2.000E+01  2.000E+04  8.565E-03
   1   12   24     2     7    5.5041E+04  3.1691E+02   5.4724E+04  0.000E+00  0.000E+00  0.000E+00  3.87475E+01  1.225E-01  2.000E+01  2.000E+04  1.585E-02
   1   13   23     2     8    5.4724E+04 -6.9396E+01   5.4794E+04  0.000E+00  0.000E+00  0.000E+00  3.84974E+01  1.224E-01  2.000E+01  2.000E+04 -3.470E-03
   1   14   22     2     9    5.4794E+04  1.9481E+03   5.2846E+04  0.000E+00  0.000E+00  0.000E+00  3.82461E+01  1.211E-01  2.000E+01  2.000E+04  9.740E-02
   1   14   22     3     1    1.6853E+05 -8.5297E+03   1.7706E+05  0.000E+00  0.000E+00  0.000E+00  3.77222E+01  1.667E-01  2.000E+01  2.000E+04 -4.265E-01
   1   15   23     3     2    1.7706E+05 -5.8351E+02   1.7764E+05  0.000E+00  0.000E+00  0.000E+00  3.68359E+01  1.693E-01  2.000E+01  2.000E+04 -2.918E-02
   1   15   24     3     3    1.7764E+05 -3.7533E+02   1.7801E+05  0.000E+00  0.000E+00  0.000E+00  3.59473E+01  1.695E-01  2.000E+01  2.000E+04 -1.877E-02
   1   15   25     3     4    1.7801E+05 -3.7810E+02   1.7839E+05  0.000E+00  0.000E+00  0.000E+00  3.50587E+01  1.698E-01  2.000E+01  2.000E+04 -1.890E-02
   1   15   26     3     5    1.7839E+05 -4.5330E+02   1.7885E+05  0.000E+00  0.000E+00  0.000E+00  3.41700E+01  1.700E-01  2.000E+01  2.000E+04 -2.266E-02
   1   16   27     3     6    1.7885E+05 -5.0564E+02   1.7935E+05  0.000E+00  0.000E+00  0.000E+00  3.32814E+01  1.703E-01  2.000E+01  2.000E+04 -2.528E-02
   1   17   28     3     7    1.7935E+05 -1.9553E+03   1.8131E+05  0.000E+00  0.000E+00  0.000E+00  3.23932E+01  1.710E-01  2.000E+01  2.000E+04 -9.776E-02
   1   18   29     3     8    1.8131E+05 -3.3389E+03   1.8465E+05  0.000E+00  0.000E+00  0.000E+00  3.15058E+01  1.725E-01  2.000E+01  2.000E+04 -1.669E-01
   1   18   30     3     9    1.8465E+05 -3.5112E+03   1.8816E+05  0.000E+00  0.000E+00  0.000E+00  3.06189E+01  1.744E-01  2.000E+01  2.000E+04 -1.756E-01



1
              HEAD IN LAYER   1 AT END OF TIME STEP   1 IN STRESS PERIOD    6
  ---------------------------------------------------------------------------

          1      2      3      4      5      6      7      8      9     10
         11     12     13     14     15     16     17     18     19     20
         21     22     23     24     25     26     27     28     29     30
 .........................................................................
   1  ****** ****** ****** ****** ****** ****** ****** ****** ****** ******
      ****** ****** ****** ****** ****** ****** ****** ****** ****** ******
      ****** ****** ****** ****** ****** ****** ****** ****** ****** ******
   2  ****** ****** ****** ****** ****** ****** ****** ****** ****** ******
      ****** ****** ****** ****** ****** ****** ****** ****** ****** ******
      ****** ****** ****** ****** ****** ****** ****** ****** ****** ******
   3  ****** ****** ****** ****** ****** ****** ****** ****** ****** ******
      ****** ****** ****** ****** ****** ****** ****** ****** ****** ******
      ****** ****** ****** ****** ****** ****** ****** ****** ****** ******
   4  ****** ****** ****** ****** ****** ****** ****** ****** ****** ******
      ****** ****** ****** ****** ****** ****** ****** ****** ****** ******
      ****** ****** ****** ****** ****** ****** ****** ****** ****** ******
   5  ****** ****** ****** ****** ****** ****** ****** ****** ****** ******
      ****** ****** ****** ****** ****** ****** ****** ****** ****** ******
      ****** ****** ****** ****** ****** ****** ****** ****** ****** ******
   6  ****** ****** ****** ****** ****** ****** ****** ****** ****** ******
      ****** ****** ****** ****** ****** ****** ****** ****** ****** ******
      ****** ****** ****** ****** ****** ****** ****** ****** ****** ******
   7  ****** ****** ****** ****** ****** ****** ****** ****** ****** ******
      ****** ****** ****** ****** ****** ****** ****** ****** ****** ******
      ****** ****** ****** ****** ****** ****** ****** ****** ****** ******
   8  ****** ****** ****** ****** ****** ****** ****** ****** ****** ******
      ****** ****** ****** ****** ****** ****** ****** ****** ****** ******
      ****** ****** ****** ****** ****** ****** ****** ****** ****** ******
   9  ****** ****** ****** ****** ****** ****** ****** ****** ****** ******
      ****** ****** ****** ****** ****** ****** ****** ****** ****** ******
      ****** ****** ****** ****** ****** ****** ****** ****** ****** ******
  10  ****** ****** ****** ****** ****** ****** ****** ****** ****** ******
      ****** ****** ****** ****** ****** ****** ****** ****** ****** ******
      ****** ****** ****** ****** ****** ****** ****** ****** ****** ******
  11  ****** ****** ****** ****** ****** ****** ****** ****** ****** ******
      ****** ****** ****** ****** ****** ****** ****** ****** ****** ******
      ****** ****** ****** ****** ****** ****** ****** ****** ****** ******
  12  ****** ****** ****** ****** ****** ****** ****** ****** ****** ******
      ****** ****** ****** ****** ****** ****** ****** ****** ****** ******
      ****** ****** ****** ****** ****** ****** ****** ****** ****** ******
  13  ****** ****** ****** ****** ****** ****** ****** ****** ****** ******
      ****** ****** ****** ****** ****** ****** ****** ****** ****** ******
      ****** ****** ****** ****** ****** ****** ****** ****** ****** ******
  14  ****** ****** ****** ****** ****** ****** ****** ****** ****** ******
      ****** ****** ****** ****** ****** ****** ****** ****** ****** ******
      ****** ****** ****** ****** ****** ****** ****** ****** ****** ******
  15  ****** ****** ****** ****** ****** ****** ****** ****** ****** ******
      ****** ****** ****** ****** ****** ****** ****** ****** ****** ******
      ****** ****** ****** ****** ****** ****** ****** ****** ****** ******
  16  ****** ****** ****** ****** ****** ****** ****** ****** ****** ******
      ****** ****** ****** ****** ****** ****** ****** ****** ****** ******
      ****** ****** ****** ****** ****** ****** ****** ****** ****** ******
  17  ****** ****** ****** ****** ****** ****** ****** ****** ****** ******
      ****** ****** ****** ****** ****** ****** ****** ****** ****** ******
      ****** ****** ****** ****** ****** ****** ****** ****** ****** ******
  18  ****** ****** ****** ****** ****** ****** ****** ****** ****** ******
      ****** ****** ****** ****** ****** ****** ****** ****** ****** ******
      ****** ****** ****** ****** ****** ****** ****** ****** ****** ******
  19  ****** ****** ****** ****** ****** ****** ****** ****** ****** ******
      ****** ****** ****** ****** ****** ****** ****** ****** ****** ******
      ****** ****** ****** ****** ****** ****** ****** ****** ****** ******
  20  ****** ****** ****** ****** ****** ****** ****** ****** ****** ******
      ****** ****** ****** ****** ****** ****** ****** ****** ****** ******
      ****** ****** ****** ****** ****** ****** ****** ****** ****** ******
  21  ****** ****** ****** ****** ****** ****** ****** ****** ****** ******
      ****** ****** ****** ****** ****** ****** ****** ****** ****** ******
      ****** ****** ****** ****** ****** ****** ****** ****** ****** ******
  22  ****** ****** ****** ****** ****** ****** ****** ****** ****** ******
      ****** ****** ****** ****** ****** ****** ****** ****** ****** ******
      ****** ****** ****** ****** ****** ****** ****** ****** ****** ******
  23  ****** ****** ****** ****** ****** ****** ****** ****** ****** ******
      ****** ****** ****** ****** ****** ****** ****** ****** ****** ******
      ****** ****** ****** ****** ****** ****** ****** ****** ****** ******
  24  ****** ****** ****** ****** ****** ****** ****** ****** ****** ******
      ****** ****** ****** ****** ****** ****** ****** ****** ****** ******
      ****** ****** ****** ****** ****** ****** ****** ****** ****** ******
  25  ****** ****** ****** ****** ****** ****** ****** ****** ****** ******
      ****** ****** ****** ****** ****** ****** ****** ****** ****** ******
      ****** ****** ****** ****** ****** ****** ****** ****** ****** ******

 HEAD WILL BE SAVED ON UNIT   51 AT END OF TIME STEP    1, STRESS PERIOD    6
1
  VOLUMETRIC BUDGET FOR ENTIRE MODEL AT END OF TIME STEP    1, STRESS PERIOD   6
  ------------------------------------------------------------------------------

     CUMULATIVE VOLUMES      L**3       RATES FOR THIS TIME STEP      L**3/T
     ------------------                 ------------------------

           IN:                                      IN:
           ---                                      ---
             STORAGE =    31676630.9828               STORAGE =           5.1272
       CONSTANT HEAD =    13526476.5399         CONSTANT HEAD =       30247.1543
               WELLS =           0.0000                 WELLS =           0.0000
            RECHARGE =    15097200.0000              RECHARGE =       55200.0000
      STREAM LEAKAGE =     4427303.8144        STREAM LEAKAGE =        9171.7193

            TOTAL IN =    64727611.3370              TOTAL IN =       94624.0008

          OUT:                                     OUT:
          ----                                     ----
             STORAGE =      752252.8657               STORAGE =        8253.8150
       CONSTANT HEAD =           0.0000         CONSTANT HEAD =           0.0000
               WELLS =    21395048.7600                 WELLS =       39042.0598
            RECHARGE =           0.0000              RECHARGE =           0.0000
      STREAM LEAKAGE =    42580311.7847        STREAM LEAKAGE =       47328.1231

           TOTAL OUT =    64727613.4104             TOTAL OUT =       94623.9979

            IN - OUT =          -2.0734              IN - OUT =       2.9356E-03

 PERCENT DISCREPANCY =          -0.00     PERCENT DISCREPANCY =           0.00






         TIME SUMMARY AT END OF TIME STEP    1 IN STRESS PERIOD    6
                    SECONDS     MINUTES      HOURS       DAYS        YEARS
                    -----------------------------------------------------------
   TIME STEP LENGTH 7.86240E+06 1.31040E+05  2184.0      91.000     0.24914    
 STRESS PERIOD TIME 7.86240E+06 1.31040E+05  2184.0      91.000     0.24914    
         TOTAL TIME 4.73472E+07 7.89120E+05  13152.      548.00      1.5003    
1
1
                            STRESS PERIOD NO.    7, LENGTH =   91.00000    
                            -----------------------------------------------

                              NUMBER OF TIME STEPS =     1

                               MULTIPLIER FOR DELT =     1.500

                            INITIAL TIME STEP SIZE =   91.00000    

 WELL NO.  LAYER   ROW   COL   STRESS RATE         
 --------------------------------------------------
      1      1      8     21      -8122.    
      2      1      4     14      -6617.    
      3      1     10     23      -7449.    
      4      1     14     17     -0.1685E+05

      4 WELLS

                 RECHARGE =   0.00000    

 REUSING STREAM SEGMENT DATA FROM LAST STRESS PERIOD
 
 SOLVING FOR HEAD 


     7 CALLS TO PCG ROUTINE FOR TIME STEP   1 IN STRESS PERIOD    7
    26 TOTAL ITERATIONS

 OUTPUT CONTROL FOR STRESS PERIOD    7   TIME STEP    1
    SAVE BUDGET
    SAVE HEAD FOR ALL LAYERS
    PRINT HEAD FOR ALL LAYERS
 UBDSV2 SAVING "STREAMFLOW OUT  " ON UNIT  50 AT TIME STEP  1, STRESS PERIOD   7



 STREAM LISTING     PERIOD      7   STEP        1

 LAYER ROW COL. STREAM  RCH.  FLOW INTO     FLOW TO   FLOW OUT OF   OVRLND.     DIRECT     STREAM       STREAM     STREAM     STREAM   STREAMBED  STREAMBED
                SEG.NO.  NO.  STRM. RCH.    AQUIFER    STRM. RCH.    RUNOFF     PRECIP       ET          HEAD       DEPTH      WIDTH   CONDCTNC.   GRADIENT

   1   13    1     1     1    1.0000E+05 -1.6059E+03   1.0161E+05  0.000E+00  0.000E+00  0.000E+00  4.84067E+01  1.453E-01  2.000E+01  2.000E+04 -8.029E-02
   1   13    2     1     2    1.0161E+05 -2.5590E+03   1.0416E+05  0.000E+00  0.000E+00  0.000E+00  4.79312E+01  1.471E-01  2.000E+01  2.000E+04 -1.280E-01
   1   14    3     1     3    1.0416E+05 -3.9317E+02   1.0456E+05  0.000E+00  0.000E+00  0.000E+00  4.74552E+01  1.484E-01  2.000E+01  2.000E+04 -1.966E-02
   1   15    4     1     4    1.0456E+05 -3.6489E+02   1.0492E+05  0.000E+00  0.000E+00  0.000E+00  4.69783E+01  1.487E-01  2.000E+01  2.000E+04 -1.824E-02
   1   16    5     1     5    1.0492E+05 -1.4474E+03   1.0637E+05  0.000E+00  0.000E+00  0.000E+00  4.65018E+01  1.495E-01  2.000E+01  2.000E+04 -7.237E-02
   1   16    6     1     6    1.0637E+05 -9.1849E+02   1.0729E+05  0.000E+00  0.000E+00  0.000E+00  4.60255E+01  1.505E-01  2.000E+01  2.000E+04 -4.592E-02
   1   16    7     1     7    1.0729E+05 -9.0006E+02   1.0819E+05  0.000E+00  0.000E+00  0.000E+00  4.55490E+01  1.513E-01  2.000E+01  2.000E+04 -4.500E-02
   1   16    8     1     8    1.0819E+05 -8.8817E+02   1.0908E+05  0.000E+00  0.000E+00  0.000E+00  4.50725E+01  1.520E-01  2.000E+01  2.000E+04 -4.441E-02
   1   16    9     1     9    1.0908E+05 -8.6564E+02   1.0994E+05  0.000E+00  0.000E+00  0.000E+00  4.45959E+01  1.528E-01  2.000E+01  2.000E+04 -4.328E-02
   1   16   10     1    10    1.0994E+05 -8.2907E+02   1.1077E+05  0.000E+00  0.000E+00  0.000E+00  4.41194E+01  1.535E-01  2.000E+01  2.000E+04 -4.145E-02
   1   16   11     1    11    1.1077E+05 -7.8285E+02   1.1155E+05  0.000E+00  0.000E+00  0.000E+00  4.36428E+01  1.541E-01  2.000E+01  2.000E+04 -3.914E-02
   1   16   12     1    12    1.1155E+05 -1.0624E+03   1.1262E+05  0.000E+00  0.000E+00  0.000E+00  4.31663E+01  1.549E-01  2.000E+01  2.000E+04 -5.312E-02
   1   15   13     1    13    1.1262E+05 -5.1398E+02   1.1313E+05  0.000E+00  0.000E+00  0.000E+00  4.26896E+01  1.556E-01  2.000E+01  2.000E+04 -2.570E-02
   1   14   14     1    14    1.1313E+05  1.8871E+02   1.1294E+05  0.000E+00  0.000E+00  0.000E+00  4.22125E+01  1.557E-01  2.000E+01  2.000E+04  9.436E-03
   1   13   15     1    15    1.1294E+05  9.7889E+02   1.1196E+05  0.000E+00  0.000E+00  0.000E+00  4.17348E+01  1.552E-01  2.000E+01  2.000E+04  4.894E-02
   1   12   16     1    16    1.1196E+05 -1.6003E+02   1.1212E+05  0.000E+00  0.000E+00  0.000E+00  4.12571E+01  1.549E-01  2.000E+01  2.000E+04 -8.001E-03
   1   12   17     1    17    1.1212E+05  1.5853E+03   1.1054E+05  0.000E+00  0.000E+00  0.000E+00  4.07793E+01  1.543E-01  2.000E+01  2.000E+04  7.926E-02
   1   12   18     1    18    1.1054E+05  9.2915E+02   1.0961E+05  0.000E+00  0.000E+00  0.000E+00  4.03010E+01  1.532E-01  2.000E+01  2.000E+04  4.646E-02
   1   12   19     1    19    1.0961E+05  3.9598E+02   1.0921E+05  0.000E+00  0.000E+00  0.000E+00  3.98231E+01  1.527E-01  2.000E+01  2.000E+04  1.980E-02
   1   13   20     1    20    1.0921E+05  8.7613E+02   1.0834E+05  0.000E+00  0.000E+00  0.000E+00  3.93453E+01  1.521E-01  2.000E+01  2.000E+04  4.381E-02
   1   14   21     1    21    1.0834E+05  5.3963E+01   1.0828E+05  0.000E+00  0.000E+00  0.000E+00  3.88677E+01  1.517E-01  2.000E+01  2.000E+04  2.698E-03
   1   14   22     1    22    1.0828E+05  5.1527E+03   1.0313E+05  0.000E+00  0.000E+00  0.000E+00  3.83882E+01  1.495E-01  2.000E+01  2.000E+04  2.576E-01
   1    9   30     2     1    5.0000E+04 -2.2048E+02   5.0220E+04  0.000E+00  0.000E+00  0.000E+00  4.02410E+01  1.160E-01  2.000E+01  2.000E+04 -1.102E-02
   1    9   29     2     2    5.0220E+04 -4.7966E+02   5.0700E+04  0.000E+00  0.000E+00  0.000E+00  3.99915E+01  1.165E-01  2.000E+01  2.000E+04 -2.398E-02
   1    9   28     2     3    5.0700E+04 -6.2240E+02   5.1323E+04  0.000E+00  0.000E+00  0.000E+00  3.97423E+01  1.173E-01  2.000E+01  2.000E+04 -3.112E-02
   1    9   27     2     4    5.1323E+04 -1.0528E+03   5.2375E+04  0.000E+00  0.000E+00  0.000E+00  3.94934E+01  1.184E-01  2.000E+01  2.000E+04 -5.264E-02
   1   10   26     2     5    5.2375E+04  1.1955E+02   5.2256E+04  0.000E+00  0.000E+00  0.000E+00  3.92441E+01  1.191E-01  2.000E+01  2.000E+04  5.978E-03
   1   11   25     2     6    5.2256E+04  8.4673E+02   5.1409E+04  0.000E+00  0.000E+00  0.000E+00  3.89934E+01  1.184E-01  2.000E+01  2.000E+04  4.234E-02
   1   12   24     2     7    5.1409E+04  9.3292E+02   5.0476E+04  0.000E+00  0.000E+00  0.000E+00  3.87422E+01  1.172E-01  2.000E+01  2.000E+04  4.665E-02
   1   13   23     2     8    5.0476E+04  1.2317E+02   5.0353E+04  0.000E+00  0.000E+00  0.000E+00  3.84914E+01  1.164E-01  2.000E+01  2.000E+04  6.159E-03
   1   14   22     2     9    5.0353E+04  2.1857E+03   4.8167E+04  0.000E+00  0.000E+00  0.000E+00  3.82398E+01  1.148E-01  2.000E+01  2.000E+04  1.093E-01
   1   14   22     3     1    1.5130E+05 -8.3714E+03   1.5967E+05  0.000E+00  0.000E+00  0.000E+00  3.77120E+01  1.564E-01  2.000E+01  2.000E+04 -4.186E-01
   1   15   23     3     2    1.5967E+05 -3.7778E+02   1.6005E+05  0.000E+00  0.000E+00  0.000E+00  3.68257E+01  1.591E-01  2.000E+01  2.000E+04 -1.889E-02
   1   15   24     3     3    1.6005E+05 -2.0213E+02   1.6025E+05  0.000E+00  0.000E+00  0.000E+00  3.59370E+01  1.592E-01  2.000E+01  2.000E+04 -1.011E-02
   1   15   25     3     4    1.6025E+05 -2.0179E+02   1.6045E+05  0.000E+00  0.000E+00  0.000E+00  3.50482E+01  1.593E-01  2.000E+01  2.000E+04 -1.009E-02
   1   15   26     3     5    1.6045E+05 -2.5239E+02   1.6070E+05  0.000E+00  0.000E+00  0.000E+00  3.41595E+01  1.595E-01  2.000E+01  2.000E+04 -1.262E-02
   1   16   27     3     6    1.6070E+05 -2.7381E+02   1.6098E+05  0.000E+00  0.000E+00  0.000E+00  3.32707E+01  1.596E-01  2.000E+01  2.000E+04 -1.369E-02
   1   17   28     3     7    1.6098E+05 -1.3156E+03   1.6229E+05  0.000E+00  0.000E+00  0.000E+00  3.23823E+01  1.601E-01  2.000E+01  2.000E+04 -6.578E-02
   1   18   29     3     8    1.6229E+05 -2.6563E+03   1.6495E+05  0.000E+00  0.000E+00  0.000E+00  3.14946E+01  1.613E-01  2.000E+01  2.000E+04 -1.328E-01
   1   18   30     3     9    1.6495E+05 -2.9849E+03   1.6793E+05  0.000E+00  0.000E+00  0.000E+00  3.06074E+01  1.630E-01  2.000E+01  2.000E+04 -1.492E-01



1
              HEAD IN LAYER   1 AT END OF TIME STEP   1 IN STRESS PERIOD    7
  ---------------------------------------------------------------------------

          1      2      3      4      5      6      7      8      9     10
         11     12     13     14     15     16     17     18     19     20
         21     22     23     24     25     26     27     28     29     30
 .........................................................................
   1  ****** ****** ****** ****** ****** ****** ****** ****** ****** ******
      ****** ****** ****** ****** ****** ****** ****** ****** ****** ******
      ****** ****** ****** ****** ****** ****** ****** ****** ****** ******
   2  ****** ****** ****** ****** ****** ****** ****** ****** ****** ******
      ****** ****** ****** ****** ****** ****** ****** ****** ****** ******
      ****** ****** ****** ****** ****** ****** ****** ****** ****** ******
   3  ****** ****** ****** ****** ****** ****** ****** ****** ****** ******
      ****** ****** ****** ****** ****** ****** ****** ****** ****** ******
      ****** ****** ****** ****** ****** ****** ****** ****** ****** ******
   4  ****** ****** ****** ****** ****** ****** ****** ****** ****** ******
      ****** ****** ****** ****** ****** ****** ****** ****** ****** ******
      ****** ****** ****** ****** ****** ****** ****** ****** ****** ******
   5  ****** ****** ****** ****** ****** ****** ****** ****** ****** ******
      ****** ****** ****** ****** ****** ****** ****** ****** ****** ******
      ****** ****** ****** ****** ****** ****** ****** ****** ****** ******
   6  ****** ****** ****** ****** ****** ****** ****** ****** ****** ******
      ****** ****** ****** ****** ****** ****** ****** ****** ****** ******
      ****** ****** ****** ****** ****** ****** ****** ****** ****** ******
   7  ****** ****** ****** ****** ****** ****** ****** ****** ****** ******
      ****** ****** ****** ****** ****** ****** ****** ****** ****** ******
      ****** ****** ****** ****** ****** ****** ****** ****** ****** ******
   8  ****** ****** ****** ****** ****** ****** ****** ****** ****** ******
      ****** ****** ****** ****** ****** ****** ****** ****** ****** ******
      ****** ****** ****** ****** ****** ****** ****** ****** ****** ******
   9  ****** ****** ****** ****** ****** ****** ****** ****** ****** ******
      ****** ****** ****** ****** ****** ****** ****** ****** ****** ******
      ****** ****** ****** ****** ****** ****** ****** ****** ****** ******
  10  ****** ****** ****** ****** ****** ****** ****** ****** ****** ******
      ****** ****** ****** ****** ****** ****** ****** ****** ****** ******
      ****** ****** ****** ****** ****** ****** ****** ****** ****** ******
  11  ****** ****** ****** ****** ****** ****** ****** ****** ****** ******
      ****** ****** ****** ****** ****** ****** ****** ****** ****** ******
      ****** ****** ****** ****** ****** ****** ****** ****** ****** ******
  12  ****** ****** ****** ****** ****** ****** ****** ****** ****** ******
      ****** ****** ****** ****** ****** ****** ****** ****** ****** ******
      ****** ****** ****** ****** ****** ****** ****** ****** ****** ******
  13  ****** ****** ****** ****** ****** ****** ****** ****** ****** ******
      ****** ****** ****** ****** ****** ****** ****** ****** ****** ******
      ****** ****** ****** ****** ****** ****** ****** ****** ****** ******
  14  ****** ****** ****** ****** ****** ****** ****** ****** ****** ******
      ****** ****** ****** ****** ****** ****** ****** ****** ****** ******
      ****** ****** ****** ****** ****** ****** ****** ****** ****** ******
  15  ****** ****** ****** ****** ****** ****** ****** ****** ****** ******
      ****** ****** ****** ****** ****** ****** ****** ****** ****** ******
      ****** ****** ****** ****** ****** ****** ****** ****** ****** ******
  16  ****** ****** ****** ****** ****** ****** ****** ****** ****** ******
      ****** ****** ****** ****** ****** ****** ****** ****** ****** ******
      ****** ****** ****** ****** ****** ****** ****** ****** ****** ******
  17  ****** ****** ****** ****** ****** ****** ****** ****** ****** ******
      ****** ****** ****** ****** ****** ****** ****** ****** ****** ******
      ****** ****** ****** ****** ****** ****** ****** ****** ****** ******
  18  ****** ****** ****** ****** ****** ****** ****** ****** ****** ******
      ****** ****** ****** ****** ****** ****** ****** ****** ****** ******
      ****** ****** ****** ****** ****** ****** ****** ****** ****** ******
  19  ****** ****** ****** ****** ****** ****** ****** ****** ****** ******
      ****** ****** ****** ****** ****** ****** ****** ****** ****** ******
      ****** ****** ****** ****** ****** ****** ****** ****** ****** ******
  20  ****** ****** ****** ****** ****** ****** ****** ****** ****** ******
      ****** ****** ****** ****** ****** ****** ****** ****** ****** ******
      ****** ****** ****** ****** ****** ****** ****** ****** ****** ******
  21  ****** ****** ****** ****** ****** ****** ****** ****** ****** ******
      ****** ****** ****** ****** ****** ****** ****** ****** ****** ******
      ****** ****** ****** ****** ****** ****** ****** ****** ****** ******
  22  ****** ****** ****** ****** ****** ****** ****** ****** ****** ******
      ****** ****** ****** ****** ****** ****** ****** ****** ****** ******
      ****** ****** ****** ****** ****** ****** ****** ****** ****** ******
  23  ****** ****** ****** ****** ****** ****** ****** ****** ****** ******
      ****** ****** ****** ****** ****** ****** ****** ****** ****** ******
      ****** ****** ****** ****** ****** ****** ****** ****** ****** ******
  24  ****** ****** ****** ****** ****** ****** ****** ****** ****** ******
      ****** ****** ****** ****** ****** ****** ****** ****** ****** ******
      ****** ****** ****** ****** ****** ****** ****** ****** ****** ******
  25  ****** ****** ****** ****** ****** ****** ****** ****** ****** ******
      ****** ****** ****** ****** ****** ****** ****** ****** ****** ******
      ****** ****** ****** ****** ****** ****** ****** ****** ****** ******

 HEAD WILL BE SAVED ON UNIT   51 AT END OF TIME STEP    1, STRESS PERIOD    7
1
  VOLUMETRIC BUDGET FOR ENTIRE MODEL AT END OF TIME STEP    1, STRESS PERIOD   7
  ------------------------------------------------------------------------------

     CUMULATIVE VOLUMES      L**3       RATES FOR THIS TIME STEP      L**3/T
     ------------------                 ------------------------

           IN:                                      IN:
           ---                                      ---
             STORAGE =    33747401.9885               STORAGE =       22755.7253
       CONSTANT HEAD =    16640493.0608         CONSTANT HEAD =       34219.9618
               WELLS =           0.0000                 WELLS =           0.0000
            RECHARGE =    15097200.0000              RECHARGE =           0.0000
      STREAM LEAKAGE =     5734867.4141        STREAM LEAKAGE =       14368.8308

            TOTAL IN =    71219962.4634              TOTAL IN =       71344.5179

          OUT:                                     OUT:
          ----                                     ----
             STORAGE =      752252.8657               STORAGE =           0.0000
       CONSTANT HEAD =           0.0000         CONSTANT HEAD =           0.0000
               WELLS =    24947876.2000                 WELLS =       39042.0598
            RECHARGE =           0.0000              RECHARGE =           0.0000
      STREAM LEAKAGE =    45519835.9928        STREAM LEAKAGE =       32302.4638

           TOTAL OUT =    71219965.0586             TOTAL OUT =       71344.5236

            IN - OUT =          -2.5952              IN - OUT =      -5.7338E-03

 PERCENT DISCREPANCY =          -0.00     PERCENT DISCREPANCY =          -0.00






         TIME SUMMARY AT END OF TIME STEP    1 IN STRESS PERIOD    7
                    SECONDS     MINUTES      HOURS       DAYS        YEARS
                    -----------------------------------------------------------
   TIME STEP LENGTH 7.86240E+06 1.31040E+05  2184.0      91.000     0.24914    
 STRESS PERIOD TIME 7.86240E+06 1.31040E+05  2184.0      91.000     0.24914    
         TOTAL TIME 5.52096E+07 9.20160E+05  15336.      639.00      1.7495    
1
1
                            STRESS PERIOD NO.    8, LENGTH =   91.00000    
                            -----------------------------------------------

                              NUMBER OF TIME STEPS =     1

                               MULTIPLIER FOR DELT =     1.500

                            INITIAL TIME STEP SIZE =   91.00000    

 WELL NO.  LAYER   ROW   COL   STRESS RATE         
 --------------------------------------------------
      1      1      8     21      -8122.    
      2      1      4     14      -6617.    
      3      1     10     23      -7449.    
      4      1     14     17     -0.1685E+05

      4 WELLS

                 RECHARGE =  1.000000E-03

 REUSING STREAM SEGMENT DATA FROM LAST STRESS PERIOD
 
 SOLVING FOR HEAD 


     6 CALLS TO PCG ROUTINE FOR TIME STEP   1 IN STRESS PERIOD    8
    22 TOTAL ITERATIONS

 OUTPUT CONTROL FOR STRESS PERIOD    8   TIME STEP    1
    SAVE BUDGET
    SAVE HEAD FOR ALL LAYERS
    PRINT HEAD FOR ALL LAYERS
 UBDSV2 SAVING "STREAMFLOW OUT  " ON UNIT  50 AT TIME STEP  1, STRESS PERIOD   8



 STREAM LISTING     PERIOD      8   STEP        1

 LAYER ROW COL. STREAM  RCH.  FLOW INTO     FLOW TO   FLOW OUT OF   OVRLND.     DIRECT     STREAM       STREAM     STREAM     STREAM   STREAMBED  STREAMBED
                SEG.NO.  NO.  STRM. RCH.    AQUIFER    STRM. RCH.    RUNOFF     PRECIP       ET          HEAD       DEPTH      WIDTH   CONDCTNC.   GRADIENT

   1   13    1     1     1    1.0000E+05 -1.6706E+03   1.0167E+05  0.000E+00  0.000E+00  0.000E+00  4.84067E+01  1.454E-01  2.000E+01  2.000E+04 -8.353E-02
   1   13    2     1     2    1.0167E+05 -2.6220E+03   1.0429E+05  0.000E+00  0.000E+00  0.000E+00  4.79313E+01  1.472E-01  2.000E+01  2.000E+04 -1.311E-01
   1   14    3     1     3    1.0429E+05 -4.5587E+02   1.0475E+05  0.000E+00  0.000E+00  0.000E+00  4.74554E+01  1.485E-01  2.000E+01  2.000E+04 -2.279E-02
   1   15    4     1     4    1.0475E+05 -4.3255E+02   1.0518E+05  0.000E+00  0.000E+00  0.000E+00  4.69785E+01  1.489E-01  2.000E+01  2.000E+04 -2.163E-02
   1   16    5     1     5    1.0518E+05 -1.6210E+03   1.0680E+05  0.000E+00  0.000E+00  0.000E+00  4.65021E+01  1.498E-01  2.000E+01  2.000E+04 -8.105E-02
   1   16    6     1     6    1.0680E+05 -1.0247E+03   1.0783E+05  0.000E+00  0.000E+00  0.000E+00  4.60259E+01  1.509E-01  2.000E+01  2.000E+04 -5.123E-02
   1   16    7     1     7    1.0783E+05 -1.0011E+03   1.0883E+05  0.000E+00  0.000E+00  0.000E+00  4.55495E+01  1.518E-01  2.000E+01  2.000E+04 -5.006E-02
   1   16    8     1     8    1.0883E+05 -9.8840E+02   1.0982E+05  0.000E+00  0.000E+00  0.000E+00  4.50731E+01  1.526E-01  2.000E+01  2.000E+04 -4.942E-02
   1   16    9     1     9    1.0982E+05 -9.6715E+02   1.1078E+05  0.000E+00  0.000E+00  0.000E+00  4.45966E+01  1.534E-01  2.000E+01  2.000E+04 -4.836E-02
   1   16   10     1    10    1.1078E+05 -9.3333E+02   1.1172E+05  0.000E+00  0.000E+00  0.000E+00  4.41201E+01  1.542E-01  2.000E+01  2.000E+04 -4.667E-02
   1   16   11     1    11    1.1172E+05 -8.9052E+02   1.1261E+05  0.000E+00  0.000E+00  0.000E+00  4.36436E+01  1.550E-01  2.000E+01  2.000E+04 -4.453E-02
   1   16   12     1    12    1.1261E+05 -1.2230E+03   1.1383E+05  0.000E+00  0.000E+00  0.000E+00  4.31672E+01  1.558E-01  2.000E+01  2.000E+04 -6.115E-02
   1   15   13     1    13    1.1383E+05 -6.7869E+02   1.1451E+05  0.000E+00  0.000E+00  0.000E+00  4.26907E+01  1.566E-01  2.000E+01  2.000E+04 -3.393E-02
   1   14   14     1    14    1.1451E+05  3.3046E+01   1.1448E+05  0.000E+00  0.000E+00  0.000E+00  4.22137E+01  1.569E-01  2.000E+01  2.000E+04  1.652E-03
   1   13   15     1    15    1.1448E+05  8.3802E+02   1.1364E+05  0.000E+00  0.000E+00  0.000E+00  4.17361E+01  1.565E-01  2.000E+01  2.000E+04  4.190E-02
   1   12   16     1    16    1.1364E+05 -2.5937E+02   1.1390E+05  0.000E+00  0.000E+00  0.000E+00  4.12586E+01  1.563E-01  2.000E+01  2.000E+04 -1.297E-02
   1   12   17     1    17    1.1390E+05  1.4801E+03   1.1242E+05  0.000E+00  0.000E+00  0.000E+00  4.07808E+01  1.558E-01  2.000E+01  2.000E+04  7.400E-02
   1   12   18     1    18    1.1242E+05  8.1635E+02   1.1160E+05  0.000E+00  0.000E+00  0.000E+00  4.03026E+01  1.548E-01  2.000E+01  2.000E+04  4.082E-02
   1   12   19     1    19    1.1160E+05  2.5367E+02   1.1135E+05  0.000E+00  0.000E+00  0.000E+00  3.98248E+01  1.544E-01  2.000E+01  2.000E+04  1.268E-02
   1   13   20     1    20    1.1135E+05  7.0053E+02   1.1065E+05  0.000E+00  0.000E+00  0.000E+00  3.93472E+01  1.540E-01  2.000E+01  2.000E+04  3.503E-02
   1   14   21     1    21    1.1065E+05 -1.0441E+02   1.1075E+05  0.000E+00  0.000E+00  0.000E+00  3.88697E+01  1.537E-01  2.000E+01  2.000E+04 -5.221E-03
   1   14   22     1    22    1.1075E+05  5.1050E+03   1.0565E+05  0.000E+00  0.000E+00  0.000E+00  3.83903E+01  1.517E-01  2.000E+01  2.000E+04  2.553E-01
   1    9   30     2     1    5.0000E+04 -3.8169E+02   5.0382E+04  0.000E+00  0.000E+00  0.000E+00  4.02411E+01  1.161E-01  2.000E+01  2.000E+04 -1.908E-02
   1    9   29     2     2    5.0382E+04 -6.3794E+02   5.1020E+04  0.000E+00  0.000E+00  0.000E+00  3.99918E+01  1.168E-01  2.000E+01  2.000E+04 -3.190E-02
   1    9   28     2     3    5.1020E+04 -7.7474E+02   5.1794E+04  0.000E+00  0.000E+00  0.000E+00  3.97428E+01  1.178E-01  2.000E+01  2.000E+04 -3.874E-02
   1    9   27     2     4    5.1794E+04 -1.2257E+03   5.3020E+04  0.000E+00  0.000E+00  0.000E+00  3.94942E+01  1.192E-01  2.000E+01  2.000E+04 -6.129E-02
   1   10   26     2     5    5.3020E+04 -8.1441E+01   5.3102E+04  0.000E+00  0.000E+00  0.000E+00  3.92451E+01  1.201E-01  2.000E+01  2.000E+04 -4.072E-03
   1   11   25     2     6    5.3102E+04  6.4693E+02   5.2455E+04  0.000E+00  0.000E+00  0.000E+00  3.89947E+01  1.197E-01  2.000E+01  2.000E+04  3.235E-02
   1   12   24     2     7    5.2455E+04  7.5184E+02   5.1703E+04  0.000E+00  0.000E+00  0.000E+00  3.87437E+01  1.187E-01  2.000E+01  2.000E+04  3.759E-02
   1   13   23     2     8    5.1703E+04  4.9497E+01   5.1653E+04  0.000E+00  0.000E+00  0.000E+00  3.84932E+01  1.182E-01  2.000E+01  2.000E+04  2.475E-03
   1   14   22     2     9    5.1653E+04  2.1328E+03   4.9520E+04  0.000E+00  0.000E+00  0.000E+00  3.82417E+01  1.167E-01  2.000E+01  2.000E+04  1.066E-01
   1   14   22     3     1    1.5517E+05 -8.4144E+03   1.6358E+05  0.000E+00  0.000E+00  0.000E+00  3.77143E+01  1.588E-01  2.000E+01  2.000E+04 -4.207E-01
   1   15   23     3     2    1.6358E+05 -4.4218E+02   1.6402E+05  0.000E+00  0.000E+00  0.000E+00  3.68281E+01  1.614E-01  2.000E+01  2.000E+04 -2.211E-02
   1   15   24     3     3    1.6402E+05 -2.6275E+02   1.6429E+05  0.000E+00  0.000E+00  0.000E+00  3.59394E+01  1.616E-01  2.000E+01  2.000E+04 -1.314E-02
   1   15   25     3     4    1.6429E+05 -2.6413E+02   1.6455E+05  0.000E+00  0.000E+00  0.000E+00  3.50506E+01  1.618E-01  2.000E+01  2.000E+04 -1.321E-02
   1   15   26     3     5    1.6455E+05 -3.2710E+02   1.6488E+05  0.000E+00  0.000E+00  0.000E+00  3.41619E+01  1.619E-01  2.000E+01  2.000E+04 -1.636E-02
   1   16   27     3     6    1.6488E+05 -3.5576E+02   1.6523E+05  0.000E+00  0.000E+00  0.000E+00  3.32732E+01  1.621E-01  2.000E+01  2.000E+04 -1.779E-02
   1   17   28     3     7    1.6523E+05 -1.5198E+03   1.6675E+05  0.000E+00  0.000E+00  0.000E+00  3.23849E+01  1.627E-01  2.000E+01  2.000E+04 -7.599E-02
   1   18   29     3     8    1.6675E+05 -2.8228E+03   1.6958E+05  0.000E+00  0.000E+00  0.000E+00  3.14973E+01  1.640E-01  2.000E+01  2.000E+04 -1.411E-01
   1   18   30     3     9    1.6958E+05 -3.1322E+03   1.7271E+05  0.000E+00  0.000E+00  0.000E+00  3.06101E+01  1.657E-01  2.000E+01  2.000E+04 -1.566E-01



1
              HEAD IN LAYER   1 AT END OF TIME STEP   1 IN STRESS PERIOD    8
  ---------------------------------------------------------------------------

          1      2      3      4      5      6      7      8      9     10
         11     12     13     14     15     16     17     18     19     20
         21     22     23     24     25     26     27     28     29     30
 .........................................................................
   1  ****** ****** ****** ****** ****** ****** ****** ****** ****** ******
      ****** ****** ****** ****** ****** ****** ****** ****** ****** ******
      ****** ****** ****** ****** ****** ****** ****** ****** ****** ******
   2  ****** ****** ****** ****** ****** ****** ****** ****** ****** ******
      ****** ****** ****** ****** ****** ****** ****** ****** ****** ******
      ****** ****** ****** ****** ****** ****** ****** ****** ****** ******
   3  ****** ****** ****** ****** ****** ****** ****** ****** ****** ******
      ****** ****** ****** ****** ****** ****** ****** ****** ****** ******
      ****** ****** ****** ****** ****** ****** ****** ****** ****** ******
   4  ****** ****** ****** ****** ****** ****** ****** ****** ****** ******
      ****** ****** ****** ****** ****** ****** ****** ****** ****** ******
      ****** ****** ****** ****** ****** ****** ****** ****** ****** ******
   5  ****** ****** ****** ****** ****** ****** ****** ****** ****** ******
      ****** ****** ****** ****** ****** ****** ****** ****** ****** ******
      ****** ****** ****** ****** ****** ****** ****** ****** ****** ******
   6  ****** ****** ****** ****** ****** ****** ****** ****** ****** ******
      ****** ****** ****** ****** ****** ****** ****** ****** ****** ******
      ****** ****** ****** ****** ****** ****** ****** ****** ****** ******
   7  ****** ****** ****** ****** ****** ****** ****** ****** ****** ******
      ****** ****** ****** ****** ****** ****** ****** ****** ****** ******
      ****** ****** ****** ****** ****** ****** ****** ****** ****** ******
   8  ****** ****** ****** ****** ****** ****** ****** ****** ****** ******
      ****** ****** ****** ****** ****** ****** ****** ****** ****** ******
      ****** ****** ****** ****** ****** ****** ****** ****** ****** ******
   9  ****** ****** ****** ****** ****** ****** ****** ****** ****** ******
      ****** ****** ****** ****** ****** ****** ****** ****** ****** ******
      ****** ****** ****** ****** ****** ****** ****** ****** ****** ******
  10  ****** ****** ****** ****** ****** ****** ****** ****** ****** ******
      ****** ****** ****** ****** ****** ****** ****** ****** ****** ******
      ****** ****** ****** ****** ****** ****** ****** ****** ****** ******
  11  ****** ****** ****** ****** ****** ****** ****** ****** ****** ******
      ****** ****** ****** ****** ****** ****** ****** ****** ****** ******
      ****** ****** ****** ****** ****** ****** ****** ****** ****** ******
  12  ****** ****** ****** ****** ****** ****** ****** ****** ****** ******
      ****** ****** ****** ****** ****** ****** ****** ****** ****** ******
      ****** ****** ****** ****** ****** ****** ****** ****** ****** ******
  13  ****** ****** ****** ****** ****** ****** ****** ****** ****** ******
      ****** ****** ****** ****** ****** ****** ****** ****** ****** ******
      ****** ****** ****** ****** ****** ****** ****** ****** ****** ******
  14  ****** ****** ****** ****** ****** ****** ****** ****** ****** ******
      ****** ****** ****** ****** ****** ****** ****** ****** ****** ******
      ****** ****** ****** ****** ****** ****** ****** ****** ****** ******
  15  ****** ****** ****** ****** ****** ****** ****** ****** ****** ******
      ****** ****** ****** ****** ****** ****** ****** ****** ****** ******
      ****** ****** ****** ****** ****** ****** ****** ****** ****** ******
  16  ****** ****** ****** ****** ****** ****** ****** ****** ****** ******
      ****** ****** ****** ****** ****** ****** ****** ****** ****** ******
      ****** ****** ****** ****** ****** ****** ****** ****** ****** ******
  17  ****** ****** ****** ****** ****** ****** ****** ****** ****** ******
      ****** ****** ****** ****** ****** ****** ****** ****** ****** ******
      ****** ****** ****** ****** ****** ****** ****** ****** ****** ******
  18  ****** ****** ****** ****** ****** ****** ****** ****** ****** ******
      ****** ****** ****** ****** ****** ****** ****** ****** ****** ******
      ****** ****** ****** ****** ****** ****** ****** ****** ****** ******
  19  ****** ****** ****** ****** ****** ****** ****** ****** ****** ******
      ****** ****** ****** ****** ****** ****** ****** ****** ****** ******
      ****** ****** ****** ****** ****** ****** ****** ****** ****** ******
  20  ****** ****** ****** ****** ****** ****** ****** ****** ****** ******
      ****** ****** ****** ****** ****** ****** ****** ****** ****** ******
      ****** ****** ****** ****** ****** ****** ****** ****** ****** ******
  21  ****** ****** ****** ****** ****** ****** ****** ****** ****** ******
      ****** ****** ****** ****** ****** ****** ****** ****** ****** ******
      ****** ****** ****** ****** ****** ****** ****** ****** ****** ******
  22  ****** ****** ****** ****** ****** ****** ****** ****** ****** ******
      ****** ****** ****** ****** ****** ****** ****** ****** ****** ******
      ****** ****** ****** ****** ****** ****** ****** ****** ****** ******
  23  ****** ****** ****** ****** ****** ****** ****** ****** ****** ******
      ****** ****** ****** ****** ****** ****** ****** ****** ****** ******
      ****** ****** ****** ****** ****** ****** ****** ****** ****** ******
  24  ****** ****** ****** ****** ****** ****** ****** ****** ****** ******
      ****** ****** ****** ****** ****** ****** ****** ****** ****** ******
      ****** ****** ****** ****** ****** ****** ****** ****** ****** ******
  25  ****** ****** ****** ****** ****** ****** ****** ****** ****** ******
      ****** ****** ****** ****** ****** ****** ****** ****** ****** ******
      ****** ****** ****** ****** ****** ****** ****** ****** ****** ******

 HEAD WILL BE SAVED ON UNIT   51 AT END OF TIME STEP    1, STRESS PERIOD    8
1
  VOLUMETRIC BUDGET FOR ENTIRE MODEL AT END OF TIME STEP    1, STRESS PERIOD   8
  ------------------------------------------------------------------------------

     CUMULATIVE VOLUMES      L**3       RATES FOR THIS TIME STEP      L**3/T
     ------------------                 ------------------------

           IN:                                      IN:
           ---                                      ---
             STORAGE =    33905196.8025               STORAGE =        1734.0089
       CONSTANT HEAD =    19730627.6795         CONSTANT HEAD =       33957.5233
               WELLS =           0.0000                 WELLS =           0.0000
            RECHARGE =    17608800.0000              RECHARGE =       27600.0000
      STREAM LEAKAGE =     6900374.3093        STREAM LEAKAGE =       12807.7681

            TOTAL IN =    78144998.7914              TOTAL IN =       76099.3003

          OUT:                                     OUT:
          ----                                     ----
             STORAGE =      892563.3133               STORAGE =        1541.8731
       CONSTANT HEAD =           0.0000         CONSTANT HEAD =           0.0000
               WELLS =    28500703.6401                 WELLS =       39042.0598
            RECHARGE =           0.0000              RECHARGE =           0.0000
      STREAM LEAKAGE =    48751733.6831        STREAM LEAKAGE =       35515.3592

           TOTAL OUT =    78145000.6364             TOTAL OUT =       76099.2921

            IN - OUT =          -1.8451              IN - OUT =       8.2429E-03

 PERCENT DISCREPANCY =          -0.00     PERCENT DISCREPANCY =           0.00






         TIME SUMMARY AT END OF TIME STEP    1 IN STRESS PERIOD    8
                    SECONDS     MINUTES      HOURS       DAYS        YEARS
                    -----------------------------------------------------------
   TIME STEP LENGTH 7.86240E+06 1.31040E+05  2184.0      91.000     0.24914    
 STRESS PERIOD TIME 7.86240E+06 1.31040E+05  2184.0      91.000     0.24914    
         TOTAL TIME 6.30720E+07 1.05120E+06  17520.      730.00      1.9986    
1
1
                            STRESS PERIOD NO.    9, LENGTH =   92.00000    
                            -----------------------------------------------

                              NUMBER OF TIME STEPS =     1

                               MULTIPLIER FOR DELT =     1.500

                            INITIAL TIME STEP SIZE =   92.00000    

 WELL NO.  LAYER   ROW   COL   STRESS RATE         
 --------------------------------------------------
      1      1      8     21      -8122.    
      2      1      4     14      -6617.    
      3      1     10     23      -7449.    
      4      1     14     17     -0.1685E+05

      4 WELLS

                 RECHARGE =  5.000000E-04

 REUSING STREAM SEGMENT DATA FROM LAST STRESS PERIOD
 
 SOLVING FOR HEAD 


     6 CALLS TO PCG ROUTINE FOR TIME STEP   1 IN STRESS PERIOD    9
    23 TOTAL ITERATIONS

 OUTPUT CONTROL FOR STRESS PERIOD    9   TIME STEP    1
    SAVE BUDGET
    SAVE HEAD FOR ALL LAYERS
    PRINT HEAD FOR ALL LAYERS
 UBDSV2 SAVING "STREAMFLOW OUT  " ON UNIT  50 AT TIME STEP  1, STRESS PERIOD   9



 STREAM LISTING     PERIOD      9   STEP        1

 LAYER ROW COL. STREAM  RCH.  FLOW INTO     FLOW TO   FLOW OUT OF   OVRLND.     DIRECT     STREAM       STREAM     STREAM     STREAM   STREAMBED  STREAMBED
                SEG.NO.  NO.  STRM. RCH.    AQUIFER    STRM. RCH.    RUNOFF     PRECIP       ET          HEAD       DEPTH      WIDTH   CONDCTNC.   GRADIENT

   1   13    1     1     1    1.0000E+05 -1.4497E+03   1.0145E+05  0.000E+00  0.000E+00  0.000E+00  4.84066E+01  1.453E-01  2.000E+01  2.000E+04 -7.249E-02
   1   13    2     1     2    1.0145E+05 -2.3716E+03   1.0382E+05  0.000E+00  0.000E+00  0.000E+00  4.79310E+01  1.469E-01  2.000E+01  2.000E+04 -1.186E-01
   1   14    3     1     3    1.0382E+05 -3.8399E+02   1.0421E+05  0.000E+00  0.000E+00  0.000E+00  4.74549E+01  1.481E-01  2.000E+01  2.000E+04 -1.920E-02
   1   15    4     1     4    1.0421E+05 -3.5990E+02   1.0457E+05  0.000E+00  0.000E+00  0.000E+00  4.69780E+01  1.484E-01  2.000E+01  2.000E+04 -1.799E-02
   1   16    5     1     5    1.0457E+05 -1.4283E+03   1.0599E+05  0.000E+00  0.000E+00  0.000E+00  4.65015E+01  1.492E-01  2.000E+01  2.000E+04 -7.141E-02
   1   16    6     1     6    1.0599E+05 -9.0411E+02   1.0690E+05  0.000E+00  0.000E+00  0.000E+00  4.60252E+01  1.502E-01  2.000E+01  2.000E+04 -4.521E-02
   1   16    7     1     7    1.0690E+05 -8.8418E+02   1.0778E+05  0.000E+00  0.000E+00  0.000E+00  4.55487E+01  1.509E-01  2.000E+01  2.000E+04 -4.421E-02
   1   16    8     1     8    1.0778E+05 -8.7301E+02   1.0865E+05  0.000E+00  0.000E+00  0.000E+00  4.50721E+01  1.517E-01  2.000E+01  2.000E+04 -4.365E-02
   1   16    9     1     9    1.0865E+05 -8.5348E+02   1.0951E+05  0.000E+00  0.000E+00  0.000E+00  4.45956E+01  1.524E-01  2.000E+01  2.000E+04 -4.267E-02
   1   16   10     1    10    1.0951E+05 -8.2187E+02   1.1033E+05  0.000E+00  0.000E+00  0.000E+00  4.41190E+01  1.531E-01  2.000E+01  2.000E+04 -4.109E-02
   1   16   11     1    11    1.1033E+05 -7.8033E+02   1.1111E+05  0.000E+00  0.000E+00  0.000E+00  4.36424E+01  1.538E-01  2.000E+01  2.000E+04 -3.902E-02
   1   16   12     1    12    1.1111E+05 -1.0341E+03   1.1214E+05  0.000E+00  0.000E+00  0.000E+00  4.31659E+01  1.545E-01  2.000E+01  2.000E+04 -5.170E-02
   1   15   13     1    13    1.1214E+05 -4.6679E+02   1.1261E+05  0.000E+00  0.000E+00  0.000E+00  4.26892E+01  1.551E-01  2.000E+01  2.000E+04 -2.334E-02
   1   14   14     1    14    1.1261E+05  2.5964E+02   1.1235E+05  0.000E+00  0.000E+00  0.000E+00  4.22120E+01  1.552E-01  2.000E+01  2.000E+04  1.298E-02
   1   13   15     1    15    1.1235E+05  1.0716E+03   1.1128E+05  0.000E+00  0.000E+00  0.000E+00  4.17342E+01  1.547E-01  2.000E+01  2.000E+04  5.358E-02
   1   12   16     1    16    1.1128E+05 -1.5613E+01   1.1130E+05  0.000E+00  0.000E+00  0.000E+00  4.12565E+01  1.542E-01  2.000E+01  2.000E+04 -7.807E-04
   1   12   17     1    17    1.1130E+05  1.6462E+03   1.0965E+05  0.000E+00  0.000E+00  0.000E+00  4.07786E+01  1.536E-01  2.000E+01  2.000E+04  8.231E-02
   1   12   18     1    18    1.0965E+05  9.7442E+02   1.0868E+05  0.000E+00  0.000E+00  0.000E+00  4.03002E+01  1.525E-01  2.000E+01  2.000E+04  4.872E-02
   1   12   19     1    19    1.0868E+05  4.4405E+02   1.0823E+05  0.000E+00  0.000E+00  0.000E+00  3.98223E+01  1.519E-01  2.000E+01  2.000E+04  2.220E-02
   1   13   20     1    20    1.0823E+05  8.7520E+02   1.0736E+05  0.000E+00  0.000E+00  0.000E+00  3.93445E+01  1.513E-01  2.000E+01  2.000E+04  4.376E-02
   1   14   21     1    21    1.0736E+05  6.6925E+01   1.0729E+05  0.000E+00  0.000E+00  0.000E+00  3.88668E+01  1.509E-01  2.000E+01  2.000E+04  3.346E-03
   1   14   22     1    22    1.0729E+05  5.1425E+03   1.0215E+05  0.000E+00  0.000E+00  0.000E+00  3.83873E+01  1.487E-01  2.000E+01  2.000E+04  2.571E-01
   1    9   30     2     1    5.0000E+04 -2.5736E+02   5.0257E+04  0.000E+00  0.000E+00  0.000E+00  4.02410E+01  1.160E-01  2.000E+01  2.000E+04 -1.287E-02
   1    9   29     2     2    5.0257E+04 -5.1330E+02   5.0771E+04  0.000E+00  0.000E+00  0.000E+00  3.99916E+01  1.166E-01  2.000E+01  2.000E+04 -2.567E-02
   1    9   28     2     3    5.0771E+04 -6.4801E+02   5.1419E+04  0.000E+00  0.000E+00  0.000E+00  3.97424E+01  1.174E-01  2.000E+01  2.000E+04 -3.240E-02
   1    9   27     2     4    5.1419E+04 -1.0466E+03   5.2465E+04  0.000E+00  0.000E+00  0.000E+00  3.94935E+01  1.185E-01  2.000E+01  2.000E+04 -5.233E-02
   1   10   26     2     5    5.2465E+04  9.4374E+01   5.2371E+04  0.000E+00  0.000E+00  0.000E+00  3.92442E+01  1.192E-01  2.000E+01  2.000E+04  4.719E-03
   1   11   25     2     6    5.2371E+04  8.1510E+02   5.1556E+04  0.000E+00  0.000E+00  0.000E+00  3.89936E+01  1.186E-01  2.000E+01  2.000E+04  4.076E-02
   1   12   24     2     7    5.1556E+04  9.0657E+02   5.0649E+04  0.000E+00  0.000E+00  0.000E+00  3.87424E+01  1.174E-01  2.000E+01  2.000E+04  4.533E-02
   1   13   23     2     8    5.0649E+04  9.6906E+01   5.0552E+04  0.000E+00  0.000E+00  0.000E+00  3.84917E+01  1.167E-01  2.000E+01  2.000E+04  4.845E-03
   1   14   22     2     9    5.0552E+04  2.1977E+03   4.8355E+04  0.000E+00  0.000E+00  0.000E+00  3.82401E+01  1.151E-01  2.000E+01  2.000E+04  1.099E-01
   1   14   22     3     1    1.5050E+05 -8.3743E+03   1.5888E+05  0.000E+00  0.000E+00  0.000E+00  3.77115E+01  1.559E-01  2.000E+01  2.000E+04 -4.187E-01
   1   15   23     3     2    1.5888E+05 -3.8982E+02   1.5927E+05  0.000E+00  0.000E+00  0.000E+00  3.68252E+01  1.586E-01  2.000E+01  2.000E+04 -1.949E-02
   1   15   24     3     3    1.5927E+05 -2.1987E+02   1.5949E+05  0.000E+00  0.000E+00  0.000E+00  3.59365E+01  1.588E-01  2.000E+01  2.000E+04 -1.099E-02
   1   15   25     3     4    1.5949E+05 -2.2098E+02   1.5971E+05  0.000E+00  0.000E+00  0.000E+00  3.50478E+01  1.589E-01  2.000E+01  2.000E+04 -1.105E-02
   1   15   26     3     5    1.5971E+05 -2.7960E+02   1.5999E+05  0.000E+00  0.000E+00  0.000E+00  3.41590E+01  1.590E-01  2.000E+01  2.000E+04 -1.398E-02
   1   16   27     3     6    1.5999E+05 -2.9991E+02   1.6029E+05  0.000E+00  0.000E+00  0.000E+00  3.32703E+01  1.592E-01  2.000E+01  2.000E+04 -1.500E-02
   1   17   28     3     7    1.6029E+05 -1.3668E+03   1.6165E+05  0.000E+00  0.000E+00  0.000E+00  3.23819E+01  1.597E-01  2.000E+01  2.000E+04 -6.834E-02
   1   18   29     3     8    1.6165E+05 -2.6479E+03   1.6430E+05  0.000E+00  0.000E+00  0.000E+00  3.14942E+01  1.609E-01  2.000E+01  2.000E+04 -1.324E-01
   1   18   30     3     9    1.6430E+05 -3.0007E+03   1.6730E+05  0.000E+00  0.000E+00  0.000E+00  3.06070E+01  1.626E-01  2.000E+01  2.000E+04 -1.500E-01



1
              HEAD IN LAYER   1 AT END OF TIME STEP   1 IN STRESS PERIOD    9
  ---------------------------------------------------------------------------

          1      2      3      4      5      6      7      8      9     10
         11     12     13     14     15     16     17     18     19     20
         21     22     23     24     25     26     27     28     29     30
 .........................................................................
   1  ****** ****** ****** ****** ****** ****** ****** ****** ****** ******
      ****** ****** ****** ****** ****** ****** ****** ****** ****** ******
      ****** ****** ****** ****** ****** ****** ****** ****** ****** ******
   2  ****** ****** ****** ****** ****** ****** ****** ****** ****** ******
      ****** ****** ****** ****** ****** ****** ****** ****** ****** ******
      ****** ****** ****** ****** ****** ****** ****** ****** ****** ******
   3  ****** ****** ****** ****** ****** ****** ****** ****** ****** ******
      ****** ****** ****** ****** ****** ****** ****** ****** ****** ******
      ****** ****** ****** ****** ****** ****** ****** ****** ****** ******
   4  ****** ****** ****** ****** ****** ****** ****** ****** ****** ******
      ****** ****** ****** ****** ****** ****** ****** ****** ****** ******
      ****** ****** ****** ****** ****** ****** ****** ****** ****** ******
   5  ****** ****** ****** ****** ****** ****** ****** ****** ****** ******
      ****** ****** ****** ****** ****** ****** ****** ****** ****** ******
      ****** ****** ****** ****** ****** ****** ****** ****** ****** ******
   6  ****** ****** ****** ****** ****** ****** ****** ****** ****** ******
      ****** ****** ****** ****** ****** ****** ****** ****** ****** ******
      ****** ****** ****** ****** ****** ****** ****** ****** ****** ******
   7  ****** ****** ****** ****** ****** ****** ****** ****** ****** ******
      ****** ****** ****** ****** ****** ****** ****** ****** ****** ******
      ****** ****** ****** ****** ****** ****** ****** ****** ****** ******
   8  ****** ****** ****** ****** ****** ****** ****** ****** ****** ******
      ****** ****** ****** ****** ****** ****** ****** ****** ****** ******
      ****** ****** ****** ****** ****** ****** ****** ****** ****** ******
   9  ****** ****** ****** ****** ****** ****** ****** ****** ****** ******
      ****** ****** ****** ****** ****** ****** ****** ****** ****** ******
      ****** ****** ****** ****** ****** ****** ****** ****** ****** ******
  10  ****** ****** ****** ****** ****** ****** ****** ****** ****** ******
      ****** ****** ****** ****** ****** ****** ****** ****** ****** ******
      ****** ****** ****** ****** ****** ****** ****** ****** ****** ******
  11  ****** ****** ****** ****** ****** ****** ****** ****** ****** ******
      ****** ****** ****** ****** ****** ****** ****** ****** ****** ******
      ****** ****** ****** ****** ****** ****** ****** ****** ****** ******
  12  ****** ****** ****** ****** ****** ****** ****** ****** ****** ******
      ****** ****** ****** ****** ****** ****** ****** ****** ****** ******
      ****** ****** ****** ****** ****** ****** ****** ****** ****** ******
  13  ****** ****** ****** ****** ****** ****** ****** ****** ****** ******
      ****** ****** ****** ****** ****** ****** ****** ****** ****** ******
      ****** ****** ****** ****** ****** ****** ****** ****** ****** ******
  14  ****** ****** ****** ****** ****** ****** ****** ****** ****** ******
      ****** ****** ****** ****** ****** ****** ****** ****** ****** ******
      ****** ****** ****** ****** ****** ****** ****** ****** ****** ******
  15  ****** ****** ****** ****** ****** ****** ****** ****** ****** ******
      ****** ****** ****** ****** ****** ****** ****** ****** ****** ******
      ****** ****** ****** ****** ****** ****** ****** ****** ****** ******
  16  ****** ****** ****** ****** ****** ****** ****** ****** ****** ******
      ****** ****** ****** ****** ****** ****** ****** ****** ****** ******
      ****** ****** ****** ****** ****** ****** ****** ****** ****** ******
  17  ****** ****** ****** ****** ****** ****** ****** ****** ****** ******
      ****** ****** ****** ****** ****** ****** ****** ****** ****** ******
      ****** ****** ****** ****** ****** ****** ****** ****** ****** ******
  18  ****** ****** ****** ****** ****** ****** ****** ****** ****** ******
      ****** ****** ****** ****** ****** ****** ****** ****** ****** ******
      ****** ****** ****** ****** ****** ****** ****** ****** ****** ******
  19  ****** ****** ****** ****** ****** ****** ****** ****** ****** ******
      ****** ****** ****** ****** ****** ****** ****** ****** ****** ******
      ****** ****** ****** ****** ****** ****** ****** ****** ****** ******
  20  ****** ****** ****** ****** ****** ****** ****** ****** ****** ******
      ****** ****** ****** ****** ****** ****** ****** ****** ****** ******
      ****** ****** ****** ****** ****** ****** ****** ****** ****** ******
  21  ****** ****** ****** ****** ****** ****** ****** ****** ****** ******
      ****** ****** ****** ****** ****** ****** ****** ****** ****** ******
      ****** ****** ****** ****** ****** ****** ****** ****** ****** ******
  22  ****** ****** ****** ****** ****** ****** ****** ****** ****** ******
      ****** ****** ****** ****** ****** ****** ****** ****** ****** ******
      ****** ****** ****** ****** ****** ****** ****** ****** ****** ******
  23  ****** ****** ****** ****** ****** ****** ****** ****** ****** ******
      ****** ****** ****** ****** ****** ****** ****** ****** ****** ******
      ****** ****** ****** ****** ****** ****** ****** ****** ****** ******
  24  ****** ****** ****** ****** ****** ****** ****** ****** ****** ******
      ****** ****** ****** ****** ****** ****** ****** ****** ****** ******
      ****** ****** ****** ****** ****** ****** ****** ****** ****** ******
  25  ****** ****** ****** ****** ****** ****** ****** ****** ****** ******
      ****** ****** ****** ****** ****** ****** ****** ****** ****** ******
      ****** ****** ****** ****** ****** ****** ****** ****** ****** ******

 HEAD WILL BE SAVED ON UNIT   51 AT END OF TIME STEP    1, STRESS PERIOD    9
1
  VOLUMETRIC BUDGET FOR ENTIRE MODEL AT END OF TIME STEP    1, STRESS PERIOD   9
  ------------------------------------------------------------------------------

     CUMULATIVE VOLUMES      L**3       RATES FOR THIS TIME STEP      L**3/T
     ------------------                 ------------------------

           IN:                                      IN:
           ---                                      ---
             STORAGE =    34585690.5244               STORAGE =        7396.6709
       CONSTANT HEAD =    22964085.4854         CONSTANT HEAD =       35146.2805
               WELLS =           0.0000                 WELLS =           0.0000
            RECHARGE =    18878400.0000              RECHARGE =       13800.0000
      STREAM LEAKAGE =     8242762.7782        STREAM LEAKAGE =       14591.1790

            TOTAL IN =    84670938.7881              TOTAL IN =       70934.1304

          OUT:                                     OUT:
          ----                                     ----
             STORAGE =      892563.3133               STORAGE =           0.0000
       CONSTANT HEAD =           0.0000         CONSTANT HEAD =           0.0000
               WELLS =    32092573.1399                 WELLS =       39042.0598
            RECHARGE =           0.0000              RECHARGE =           0.0000
      STREAM LEAKAGE =    51685804.2547        STREAM LEAKAGE =       31892.0714

           TOTAL OUT =    84670940.7079             TOTAL OUT =       70934.1312

            IN - OUT =          -1.9198              IN - OUT =      -8.1298E-04

 PERCENT DISCREPANCY =          -0.00     PERCENT DISCREPANCY =          -0.00






         TIME SUMMARY AT END OF TIME STEP    1 IN STRESS PERIOD    9
                    SECONDS     MINUTES      HOURS       DAYS        YEARS
                    -----------------------------------------------------------
   TIME STEP LENGTH 7.94880E+06 1.32480E+05  2208.0      92.000     0.25188    
 STRESS PERIOD TIME 7.94880E+06 1.32480E+05  2208.0      92.000     0.25188    
         TOTAL TIME 7.10208E+07 1.18368E+06  19728.      822.00      2.2505    
1
1
                            STRESS PERIOD NO.   10, LENGTH =   91.00000    
                            -----------------------------------------------

                              NUMBER OF TIME STEPS =     1

                               MULTIPLIER FOR DELT =     1.500

                            INITIAL TIME STEP SIZE =   91.00000    

 WELL NO.  LAYER   ROW   COL   STRESS RATE         
 --------------------------------------------------
      1      1      8     21      -8122.    
      2      1      4     14      -6617.    
      3      1     10     23      -7449.    
      4      1     14     17     -0.1685E+05

      4 WELLS

                 RECHARGE =  2.000000E-03

 REUSING STREAM SEGMENT DATA FROM LAST STRESS PERIOD
 
 SOLVING FOR HEAD 


     7 CALLS TO PCG ROUTINE FOR TIME STEP   1 IN STRESS PERIOD   10
    26 TOTAL ITERATIONS

 OUTPUT CONTROL FOR STRESS PERIOD   10   TIME STEP    1
    SAVE BUDGET
    SAVE HEAD FOR ALL LAYERS
    PRINT HEAD FOR ALL LAYERS
 UBDSV2 SAVING "STREAMFLOW OUT  " ON UNIT  50 AT TIME STEP  1, STRESS PERIOD  10



 STREAM LISTING     PERIOD     10   STEP        1

 LAYER ROW COL. STREAM  RCH.  FLOW INTO     FLOW TO   FLOW OUT OF   OVRLND.     DIRECT     STREAM       STREAM     STREAM     STREAM   STREAMBED  STREAMBED
                SEG.NO.  NO.  STRM. RCH.    AQUIFER    STRM. RCH.    RUNOFF     PRECIP       ET          HEAD       DEPTH      WIDTH   CONDCTNC.   GRADIENT

   1   13    1     1     1    1.0000E+05 -1.8975E+03   1.0190E+05  0.000E+00  0.000E+00  0.000E+00  4.84068E+01  1.455E-01  2.000E+01  2.000E+04 -9.487E-02
   1   13    2     1     2    1.0190E+05 -2.8675E+03   1.0476E+05  0.000E+00  0.000E+00  0.000E+00  4.79316E+01  1.475E-01  2.000E+01  2.000E+04 -1.434E-01
   1   14    3     1     3    1.0476E+05 -5.6971E+02   1.0533E+05  0.000E+00  0.000E+00  0.000E+00  4.74558E+01  1.490E-01  2.000E+01  2.000E+04 -2.849E-02
   1   15    4     1     4    1.0533E+05 -5.5870E+02   1.0589E+05  0.000E+00  0.000E+00  0.000E+00  4.69790E+01  1.495E-01  2.000E+01  2.000E+04 -2.793E-02
   1   16    5     1     5    1.0589E+05 -2.0470E+03   1.0794E+05  0.000E+00  0.000E+00  0.000E+00  4.65028E+01  1.506E-01  2.000E+01  2.000E+04 -1.024E-01
   1   16    6     1     6    1.0794E+05 -1.2659E+03   1.0921E+05  0.000E+00  0.000E+00  0.000E+00  4.60270E+01  1.520E-01  2.000E+01  2.000E+04 -6.329E-02
   1   16    7     1     7    1.0921E+05 -1.2281E+03   1.1043E+05  0.000E+00  0.000E+00  0.000E+00  4.55507E+01  1.530E-01  2.000E+01  2.000E+04 -6.140E-02
   1   16    8     1     8    1.1043E+05 -1.2115E+03   1.1165E+05  0.000E+00  0.000E+00  0.000E+00  4.50745E+01  1.540E-01  2.000E+01  2.000E+04 -6.057E-02
   1   16    9     1     9    1.1165E+05 -1.1905E+03   1.1284E+05  0.000E+00  0.000E+00  0.000E+00  4.45982E+01  1.550E-01  2.000E+01  2.000E+04 -5.952E-02
   1   16   10     1    10    1.1284E+05 -1.1592E+03   1.1400E+05  0.000E+00  0.000E+00  0.000E+00  4.41219E+01  1.560E-01  2.000E+01  2.000E+04 -5.796E-02
   1   16   11     1    11    1.1400E+05 -1.1213E+03   1.1512E+05  0.000E+00  0.000E+00  0.000E+00  4.36456E+01  1.569E-01  2.000E+01  2.000E+04 -5.607E-02
   1   16   12     1    12    1.1512E+05 -1.6031E+03   1.1672E+05  0.000E+00  0.000E+00  0.000E+00  4.31694E+01  1.581E-01  2.000E+01  2.000E+04 -8.015E-02
   1   15   13     1    13    1.1672E+05 -1.0516E+03   1.1777E+05  0.000E+00  0.000E+00  0.000E+00  4.26932E+01  1.591E-01  2.000E+01  2.000E+04 -5.258E-02
   1   14   14     1    14    1.1777E+05 -3.3161E+02   1.1810E+05  0.000E+00  0.000E+00  0.000E+00  4.22165E+01  1.597E-01  2.000E+01  2.000E+04 -1.658E-02
   1   13   15     1    15    1.1810E+05  4.9103E+02   1.1761E+05  0.000E+00  0.000E+00  0.000E+00  4.17392E+01  1.596E-01  2.000E+01  2.000E+04  2.455E-02
   1   12   16     1    16    1.1761E+05 -5.7343E+02   1.1819E+05  0.000E+00  0.000E+00  0.000E+00  4.12619E+01  1.597E-01  2.000E+01  2.000E+04 -2.867E-02
   1   12   17     1    17    1.1819E+05  1.2227E+03   1.1696E+05  0.000E+00  0.000E+00  0.000E+00  4.07844E+01  1.594E-01  2.000E+01  2.000E+04  6.114E-02
   1   12   18     1    18    1.1696E+05  5.5476E+02   1.1641E+05  0.000E+00  0.000E+00  0.000E+00  4.03064E+01  1.587E-01  2.000E+01  2.000E+04  2.774E-02
   1   12   19     1    19    1.1641E+05 -7.2391E+01   1.1648E+05  0.000E+00  0.000E+00  0.000E+00  3.98289E+01  1.585E-01  2.000E+01  2.000E+04 -3.620E-03
   1   13   20     1    20    1.1648E+05  3.5472E+02   1.1613E+05  0.000E+00  0.000E+00  0.000E+00  3.93516E+01  1.584E-01  2.000E+01  2.000E+04  1.774E-02
   1   14   21     1    21    1.1613E+05 -4.5806E+02   1.1658E+05  0.000E+00  0.000E+00  0.000E+00  3.88743E+01  1.584E-01  2.000E+01  2.000E+04 -2.290E-02
   1   14   22     1    22    1.1658E+05  5.0168E+03   1.1157E+05  0.000E+00  0.000E+00  0.000E+00  3.83952E+01  1.565E-01  2.000E+01  2.000E+04  2.508E-01
   1    9   30     2     1    5.0000E+04 -6.7103E+02   5.0671E+04  0.000E+00  0.000E+00  0.000E+00  4.02413E+01  1.163E-01  2.000E+01  2.000E+04 -3.355E-02
   1    9   29     2     2    5.0671E+04 -9.2465E+02   5.1596E+04  0.000E+00  0.000E+00  0.000E+00  3.99924E+01  1.174E-01  2.000E+01  2.000E+04 -4.623E-02
   1    9   28     2     3    5.1596E+04 -1.0584E+03   5.2654E+04  0.000E+00  0.000E+00  0.000E+00  3.97438E+01  1.188E-01  2.000E+01  2.000E+04 -5.292E-02
   1    9   27     2     4    5.2654E+04 -1.5980E+03   5.4252E+04  0.000E+00  0.000E+00  0.000E+00  3.94956E+01  1.206E-01  2.000E+01  2.000E+04 -7.990E-02
   1   10   26     2     5    5.4252E+04 -4.5735E+02   5.4709E+04  0.000E+00  0.000E+00  0.000E+00  3.92470E+01  1.220E-01  2.000E+01  2.000E+04 -2.287E-02
   1   11   25     2     6    5.4709E+04  2.8782E+02   5.4422E+04  0.000E+00  0.000E+00  0.000E+00  3.89971E+01  1.221E-01  2.000E+01  2.000E+04  1.439E-02
   1   12   24     2     7    5.4422E+04  4.2948E+02   5.3992E+04  0.000E+00  0.000E+00  0.000E+00  3.87466E+01  1.216E-01  2.000E+01  2.000E+04  2.147E-02
   1   13   23     2     8    5.3992E+04 -5.1618E+01   5.4044E+04  0.000E+00  0.000E+00  0.000E+00  3.84964E+01  1.214E-01  2.000E+01  2.000E+04 -2.581E-03
   1   14   22     2     9    5.4044E+04  2.0140E+03   5.2030E+04  0.000E+00  0.000E+00  0.000E+00  3.82450E+01  1.200E-01  2.000E+01  2.000E+04  1.007E-01
   1   14   22     3     1    1.6360E+05 -8.5002E+03   1.7210E+05  0.000E+00  0.000E+00  0.000E+00  3.77193E+01  1.638E-01  2.000E+01  2.000E+04 -4.250E-01
   1   15   23     3     2    1.7210E+05 -5.5244E+02   1.7265E+05  0.000E+00  0.000E+00  0.000E+00  3.68331E+01  1.664E-01  2.000E+01  2.000E+04 -2.762E-02
   1   15   24     3     3    1.7265E+05 -3.5710E+02   1.7301E+05  0.000E+00  0.000E+00  0.000E+00  3.59445E+01  1.667E-01  2.000E+01  2.000E+04 -1.785E-02
   1   15   25     3     4    1.7301E+05 -3.6161E+02   1.7337E+05  0.000E+00  0.000E+00  0.000E+00  3.50558E+01  1.669E-01  2.000E+01  2.000E+04 -1.808E-02
   1   15   26     3     5    1.7337E+05 -4.4186E+02   1.7381E+05  0.000E+00  0.000E+00  0.000E+00  3.41671E+01  1.671E-01  2.000E+01  2.000E+04 -2.209E-02
   1   16   27     3     6    1.7381E+05 -4.8582E+02   1.7430E+05  0.000E+00  0.000E+00  0.000E+00  3.32785E+01  1.674E-01  2.000E+01  2.000E+04 -2.429E-02
   1   17   28     3     7    1.7430E+05 -1.8876E+03   1.7618E+05  0.000E+00  0.000E+00  0.000E+00  3.23903E+01  1.681E-01  2.000E+01  2.000E+04 -9.438E-02
   1   18   29     3     8    1.7618E+05 -3.1998E+03   1.7938E+05  0.000E+00  0.000E+00  0.000E+00  3.15029E+01  1.695E-01  2.000E+01  2.000E+04 -1.600E-01
   1   18   30     3     9    1.7938E+05 -3.4263E+03   1.8281E+05  0.000E+00  0.000E+00  0.000E+00  3.06159E+01  1.714E-01  2.000E+01  2.000E+04 -1.713E-01



1
              HEAD IN LAYER   1 AT END OF TIME STEP   1 IN STRESS PERIOD   10
  ---------------------------------------------------------------------------

          1      2      3      4      5      6      7      8      9     10
         11     12     13     14     15     16     17     18     19     20
         21     22     23     24     25     26     27     28     29     30
 .........................................................................
   1  ****** ****** ****** ****** ****** ****** ****** ****** ****** ******
      ****** ****** ****** ****** ****** ****** ****** ****** ****** ******
      ****** ****** ****** ****** ****** ****** ****** ****** ****** ******
   2  ****** ****** ****** ****** ****** ****** ****** ****** ****** ******
      ****** ****** ****** ****** ****** ****** ****** ****** ****** ******
      ****** ****** ****** ****** ****** ****** ****** ****** ****** ******
   3  ****** ****** ****** ****** ****** ****** ****** ****** ****** ******
      ****** ****** ****** ****** ****** ****** ****** ****** ****** ******
      ****** ****** ****** ****** ****** ****** ****** ****** ****** ******
   4  ****** ****** ****** ****** ****** ****** ****** ****** ****** ******
      ****** ****** ****** ****** ****** ****** ****** ****** ****** ******
      ****** ****** ****** ****** ****** ****** ****** ****** ****** ******
   5  ****** ****** ****** ****** ****** ****** ****** ****** ****** ******
      ****** ****** ****** ****** ****** ****** ****** ****** ****** ******
      ****** ****** ****** ****** ****** ****** ****** ****** ****** ******
   6  ****** ****** ****** ****** ****** ****** ****** ****** ****** ******
      ****** ****** ****** ****** ****** ****** ****** ****** ****** ******
      ****** ****** ****** ****** ****** ****** ****** ****** ****** ******
   7  ****** ****** ****** ****** ****** ****** ****** ****** ****** ******
      ****** ****** ****** ****** ****** ****** ****** ****** ****** ******
      ****** ****** ****** ****** ****** ****** ****** ****** ****** ******
   8  ****** ****** ****** ****** ****** ****** ****** ****** ****** ******
      ****** ****** ****** ****** ****** ****** ****** ****** ****** ******
      ****** ****** ****** ****** ****** ****** ****** ****** ****** ******
   9  ****** ****** ****** ****** ****** ****** ****** ****** ****** ******
      ****** ****** ****** ****** ****** ****** ****** ****** ****** ******
      ****** ****** ****** ****** ****** ****** ****** ****** ****** ******
  10  ****** ****** ****** ****** ****** ****** ****** ****** ****** ******
      ****** ****** ****** ****** ****** ****** ****** ****** ****** ******
      ****** ****** ****** ****** ****** ****** ****** ****** ****** ******
  11  ****** ****** ****** ****** ****** ****** ****** ****** ****** ******
      ****** ****** ****** ****** ****** ****** ****** ****** ****** ******
      ****** ****** ****** ****** ****** ****** ****** ****** ****** ******
  12  ****** ****** ****** ****** ****** ****** ****** ****** ****** ******
      ****** ****** ****** ****** ****** ****** ****** ****** ****** ******
      ****** ****** ****** ****** ****** ****** ****** ****** ****** ******
  13  ****** ****** ****** ****** ****** ****** ****** ****** ****** ******
      ****** ****** ****** ****** ****** ****** ****** ****** ****** ******
      ****** ****** ****** ****** ****** ****** ****** ****** ****** ******
  14  ****** ****** ****** ****** ****** ****** ****** ****** ****** ******
      ****** ****** ****** ****** ****** ****** ****** ****** ****** ******
      ****** ****** ****** ****** ****** ****** ****** ****** ****** ******
  15  ****** ****** ****** ****** ****** ****** ****** ****** ****** ******
      ****** ****** ****** ****** ****** ****** ****** ****** ****** ******
      ****** ****** ****** ****** ****** ****** ****** ****** ****** ******
  16  ****** ****** ****** ****** ****** ****** ****** ****** ****** ******
      ****** ****** ****** ****** ****** ****** ****** ****** ****** ******
      ****** ****** ****** ****** ****** ****** ****** ****** ****** ******
  17  ****** ****** ****** ****** ****** ****** ****** ****** ****** ******
      ****** ****** ****** ****** ****** ****** ****** ****** ****** ******
      ****** ****** ****** ****** ****** ****** ****** ****** ****** ******
  18  ****** ****** ****** ****** ****** ****** ****** ****** ****** ******
      ****** ****** ****** ****** ****** ****** ****** ****** ****** ******
      ****** ****** ****** ****** ****** ****** ****** ****** ****** ******
  19  ****** ****** ****** ****** ****** ****** ****** ****** ****** ******
      ****** ****** ****** ****** ****** ****** ****** ****** ****** ******
      ****** ****** ****** ****** ****** ****** ****** ****** ****** ******
  20  ****** ****** ****** ****** ****** ****** ****** ****** ****** ******
      ****** ****** ****** ****** ****** ****** ****** ****** ****** ******
      ****** ****** ****** ****** ****** ****** ****** ****** ****** ******
  21  ****** ****** ****** ****** ****** ****** ****** ****** ****** ******
      ****** ****** ****** ****** ****** ****** ****** ****** ****** ******
      ****** ****** ****** ****** ****** ****** ****** ****** ****** ******
  22  ****** ****** ****** ****** ****** ****** ****** ****** ****** ******
      ****** ****** ****** ****** ****** ****** ****** ****** ****** ******
      ****** ****** ****** ****** ****** ****** ****** ****** ****** ******
  23  ****** ****** ****** ****** ****** ****** ****** ****** ****** ******
      ****** ****** ****** ****** ****** ****** ****** ****** ****** ******
      ****** ****** ****** ****** ****** ****** ****** ****** ****** ******
  24  ****** ****** ****** ****** ****** ****** ****** ****** ****** ******
      ****** ****** ****** ****** ****** ****** ****** ****** ****** ******
      ****** ****** ****** ****** ****** ****** ****** ****** ****** ******
  25  ****** ****** ****** ****** ****** ****** ****** ****** ****** ******
      ****** ****** ****** ****** ****** ****** ****** ****** ****** ******
      ****** ****** ****** ****** ****** ****** ****** ****** ****** ******

 HEAD WILL BE SAVED ON UNIT   51 AT END OF TIME STEP    1, STRESS PERIOD   10
1
  VOLUMETRIC BUDGET FOR ENTIRE MODEL AT END OF TIME STEP    1, STRESS PERIOD  10
  ------------------------------------------------------------------------------

     CUMULATIVE VOLUMES      L**3       RATES FOR THIS TIME STEP      L**3/T
     ------------------                 ------------------------

           IN:                                      IN:
           ---                                      ---
             STORAGE =    34585690.5244               STORAGE =           0.0000
       CONSTANT HEAD =    25895035.5539         CONSTANT HEAD =       32208.2425
               WELLS =           0.0000                 WELLS =           0.0000
            RECHARGE =    23901600.0000              RECHARGE =       55200.0000
      STREAM LEAKAGE =     9186554.4959        STREAM LEAKAGE =       10371.3376

            TOTAL IN =    93568880.5742              TOTAL IN =       97779.5801

          OUT:                                     OUT:
          ----                                     ----
             STORAGE =     2308220.0878               STORAGE =       15556.6679
       CONSTANT HEAD =           0.0000         CONSTANT HEAD =           0.0000
               WELLS =    35645400.5800                 WELLS =       39042.0598
            RECHARGE =           0.0000              RECHARGE =           0.0000
      STREAM LEAKAGE =    55615261.4699        STREAM LEAKAGE =       43180.8485

           TOTAL OUT =    93568882.1377             TOTAL OUT =       97779.5762

            IN - OUT =          -1.5635              IN - OUT =       3.9155E-03

 PERCENT DISCREPANCY =          -0.00     PERCENT DISCREPANCY =           0.00






         TIME SUMMARY AT END OF TIME STEP    1 IN STRESS PERIOD   10
                    SECONDS     MINUTES      HOURS       DAYS        YEARS
                    -----------------------------------------------------------
   TIME STEP LENGTH 7.86240E+06 1.31040E+05  2184.0      91.000     0.24914    
 STRESS PERIOD TIME 7.86240E+06 1.31040E+05  2184.0      91.000     0.24914    
         TOTAL TIME 7.88832E+07 1.31472E+06  21912.      913.00      2.4997    
1
1
                            STRESS PERIOD NO.   11, LENGTH =   91.00000    
                            -----------------------------------------------

                              NUMBER OF TIME STEPS =     1

                               MULTIPLIER FOR DELT =     1.500

                            INITIAL TIME STEP SIZE =   91.00000    

 WELL NO.  LAYER   ROW   COL   STRESS RATE         
 --------------------------------------------------
      1      1      8     21      -8122.    
      2      1      4     14      -6617.    
      3      1     10     23      -7449.    
      4      1     14     17     -0.1685E+05

      4 WELLS

                 RECHARGE =   0.00000    

 REUSING STREAM SEGMENT DATA FROM LAST STRESS PERIOD
 
 SOLVING FOR HEAD 


     7 CALLS TO PCG ROUTINE FOR TIME STEP   1 IN STRESS PERIOD   11
    26 TOTAL ITERATIONS

 OUTPUT CONTROL FOR STRESS PERIOD   11   TIME STEP    1
    SAVE BUDGET
    SAVE HEAD FOR ALL LAYERS
    PRINT HEAD FOR ALL LAYERS
 UBDSV2 SAVING "STREAMFLOW OUT  " ON UNIT  50 AT TIME STEP  1, STRESS PERIOD  11



 STREAM LISTING     PERIOD     11   STEP        1

 LAYER ROW COL. STREAM  RCH.  FLOW INTO     FLOW TO   FLOW OUT OF   OVRLND.     DIRECT     STREAM       STREAM     STREAM     STREAM   STREAMBED  STREAMBED
                SEG.NO.  NO.  STRM. RCH.    AQUIFER    STRM. RCH.    RUNOFF     PRECIP       ET          HEAD       DEPTH      WIDTH   CONDCTNC.   GRADIENT

   1   13    1     1     1    1.0000E+05 -1.3263E+03   1.0133E+05  0.000E+00  0.000E+00  0.000E+00  4.84066E+01  1.452E-01  2.000E+01  2.000E+04 -6.631E-02
   1   13    2     1     2    1.0133E+05 -2.2312E+03   1.0356E+05  0.000E+00  0.000E+00  0.000E+00  4.79309E+01  1.468E-01  2.000E+01  2.000E+04 -1.116E-01
   1   14    3     1     3    1.0356E+05 -3.3820E+02   1.0390E+05  0.000E+00  0.000E+00  0.000E+00  4.74547E+01  1.479E-01  2.000E+01  2.000E+04 -1.691E-02
   1   15    4     1     4    1.0390E+05 -3.1632E+02   1.0421E+05  0.000E+00  0.000E+00  0.000E+00  4.69777E+01  1.481E-01  2.000E+01  2.000E+04 -1.582E-02
   1   16    5     1     5    1.0421E+05 -1.3590E+03   1.0557E+05  0.000E+00  0.000E+00  0.000E+00  4.65011E+01  1.489E-01  2.000E+01  2.000E+04 -6.795E-02
   1   16    6     1     6    1.0557E+05 -8.5121E+02   1.0642E+05  0.000E+00  0.000E+00  0.000E+00  4.60248E+01  1.498E-01  2.000E+01  2.000E+04 -4.256E-02
   1   16    7     1     7    1.0642E+05 -8.3097E+02   1.0725E+05  0.000E+00  0.000E+00  0.000E+00  4.55482E+01  1.505E-01  2.000E+01  2.000E+04 -4.155E-02
   1   16    8     1     8    1.0725E+05 -8.1989E+02   1.0807E+05  0.000E+00  0.000E+00  0.000E+00  4.50717E+01  1.512E-01  2.000E+01  2.000E+04 -4.099E-02
   1   16    9     1     9    1.0807E+05 -8.0120E+02   1.0887E+05  0.000E+00  0.000E+00  0.000E+00  4.45951E+01  1.519E-01  2.000E+01  2.000E+04 -4.006E-02
   1   16   10     1    10    1.0887E+05 -7.7109E+02   1.0965E+05  0.000E+00  0.000E+00  0.000E+00  4.41185E+01  1.525E-01  2.000E+01  2.000E+04 -3.855E-02
   1   16   11     1    11    1.0965E+05 -7.3153E+02   1.1038E+05  0.000E+00  0.000E+00  0.000E+00  4.36418E+01  1.532E-01  2.000E+01  2.000E+04 -3.658E-02
   1   16   12     1    12    1.1038E+05 -9.5710E+02   1.1133E+05  0.000E+00  0.000E+00  0.000E+00  4.31652E+01  1.539E-01  2.000E+01  2.000E+04 -4.785E-02
   1   15   13     1    13    1.1133E+05 -3.6195E+02   1.1170E+05  0.000E+00  0.000E+00  0.000E+00  4.26885E+01  1.544E-01  2.000E+01  2.000E+04 -1.810E-02
   1   14   14     1    14    1.1170E+05  3.7640E+02   1.1132E+05  0.000E+00  0.000E+00  0.000E+00  4.22112E+01  1.544E-01  2.000E+01  2.000E+04  1.882E-02
   1   13   15     1    15    1.1132E+05  1.1939E+03   1.1013E+05  0.000E+00  0.000E+00  0.000E+00  4.17333E+01  1.538E-01  2.000E+01  2.000E+04  5.970E-02
   1   12   16     1    16    1.1013E+05  1.0679E+02   1.1002E+05  0.000E+00  0.000E+00  0.000E+00  4.12555E+01  1.532E-01  2.000E+01  2.000E+04  5.340E-03
   1   12   17     1    17    1.1002E+05  1.7308E+03   1.0829E+05  0.000E+00  0.000E+00  0.000E+00  4.07775E+01  1.525E-01  2.000E+01  2.000E+04  8.654E-02
   1   12   18     1    18    1.0829E+05  1.0549E+03   1.0723E+05  0.000E+00  0.000E+00  0.000E+00  4.02990E+01  1.513E-01  2.000E+01  2.000E+04  5.275E-02
   1   12   19     1    19    1.0723E+05  5.4153E+02   1.0669E+05  0.000E+00  0.000E+00  0.000E+00  3.98211E+01  1.506E-01  2.000E+01  2.000E+04  2.708E-02
   1   13   20     1    20    1.0669E+05  9.6735E+02   1.0572E+05  0.000E+00  0.000E+00  0.000E+00  3.93432E+01  1.500E-01  2.000E+01  2.000E+04  4.837E-02
   1   14   21     1    21    1.0572E+05  1.3857E+02   1.0559E+05  0.000E+00  0.000E+00  0.000E+00  3.88654E+01  1.495E-01  2.000E+01  2.000E+04  6.929E-03
   1   14   22     1    22    1.0559E+05  5.1617E+03   1.0042E+05  0.000E+00  0.000E+00  0.000E+00  3.83859E+01  1.472E-01  2.000E+01  2.000E+04  2.581E-01
   1    9   30     2     1    5.0000E+04 -1.8266E+02   5.0183E+04  0.000E+00  0.000E+00  0.000E+00  4.02410E+01  1.160E-01  2.000E+01  2.000E+04 -9.133E-03
   1    9   29     2     2    5.0183E+04 -4.3930E+02   5.0622E+04  0.000E+00  0.000E+00  0.000E+00  3.99914E+01  1.164E-01  2.000E+01  2.000E+04 -2.196E-02
   1    9   28     2     3    5.0622E+04 -5.7519E+02   5.1197E+04  0.000E+00  0.000E+00  0.000E+00  3.97421E+01  1.171E-01  2.000E+01  2.000E+04 -2.876E-02
   1    9   27     2     4    5.1197E+04 -9.5740E+02   5.2155E+04  0.000E+00  0.000E+00  0.000E+00  3.94932E+01  1.182E-01  2.000E+01  2.000E+04 -4.787E-02
   1   10   26     2     5    5.2155E+04  1.9756E+02   5.1957E+04  0.000E+00  0.000E+00  0.000E+00  3.92437E+01  1.187E-01  2.000E+01  2.000E+04  9.878E-03
   1   11   25     2     6    5.1957E+04  9.1886E+02   5.1038E+04  0.000E+00  0.000E+00  0.000E+00  3.89929E+01  1.179E-01  2.000E+01  2.000E+04  4.594E-02
   1   12   24     2     7    5.1038E+04  1.0035E+03   5.0035E+04  0.000E+00  0.000E+00  0.000E+00  3.87416E+01  1.166E-01  2.000E+01  2.000E+04  5.017E-02
   1   13   23     2     8    5.0035E+04  1.3435E+02   4.9900E+04  0.000E+00  0.000E+00  0.000E+00  3.84908E+01  1.158E-01  2.000E+01  2.000E+04  6.717E-03
   1   14   22     2     9    4.9900E+04  2.2275E+03   4.7673E+04  0.000E+00  0.000E+00  0.000E+00  3.82392E+01  1.142E-01  2.000E+01  2.000E+04  1.114E-01
   1   14   22     3     1    1.4810E+05 -8.3552E+03   1.5645E+05  0.000E+00  0.000E+00  0.000E+00  3.77100E+01  1.545E-01  2.000E+01  2.000E+04 -4.178E-01
   1   15   23     3     2    1.5645E+05 -3.6051E+02   1.5681E+05  0.000E+00  0.000E+00  0.000E+00  3.68238E+01  1.571E-01  2.000E+01  2.000E+04 -1.803E-02
   1   15   24     3     3    1.5681E+05 -1.9204E+02   1.5700E+05  0.000E+00  0.000E+00  0.000E+00  3.59351E+01  1.573E-01  2.000E+01  2.000E+04 -9.602E-03
   1   15   25     3     4    1.5700E+05 -1.9272E+02   1.5720E+05  0.000E+00  0.000E+00  0.000E+00  3.50463E+01  1.574E-01  2.000E+01  2.000E+04 -9.636E-03
   1   15   26     3     5    1.5720E+05 -2.4623E+02   1.5744E+05  0.000E+00  0.000E+00  0.000E+00  3.41575E+01  1.575E-01  2.000E+01  2.000E+04 -1.231E-02
   1   16   27     3     6    1.5744E+05 -2.6290E+02   1.5771E+05  0.000E+00  0.000E+00  0.000E+00  3.32688E+01  1.577E-01  2.000E+01  2.000E+04 -1.315E-02
   1   17   28     3     7    1.5771E+05 -1.2782E+03   1.5898E+05  0.000E+00  0.000E+00  0.000E+00  3.23804E+01  1.581E-01  2.000E+01  2.000E+04 -6.391E-02
   1   18   29     3     8    1.5898E+05 -2.5784E+03   1.6156E+05  0.000E+00  0.000E+00  0.000E+00  3.14926E+01  1.593E-01  2.000E+01  2.000E+04 -1.289E-01
   1   18   30     3     9    1.6156E+05 -2.9374E+03   1.6450E+05  0.000E+00  0.000E+00  0.000E+00  3.06054E+01  1.609E-01  2.000E+01  2.000E+04 -1.469E-01



1
              HEAD IN LAYER   1 AT END OF TIME STEP   1 IN STRESS PERIOD   11
  ---------------------------------------------------------------------------

          1      2      3      4      5      6      7      8      9     10
         11     12     13     14     15     16     17     18     19     20
         21     22     23     24     25     26     27     28     29     30
 .........................................................................
   1  ****** ****** ****** ****** ****** ****** ****** ****** ****** ******
      ****** ****** ****** ****** ****** ****** ****** ****** ****** ******
      ****** ****** ****** ****** ****** ****** ****** ****** ****** ******
   2  ****** ****** ****** ****** ****** ****** ****** ****** ****** ******
      ****** ****** ****** ****** ****** ****** ****** ****** ****** ******
      ****** ****** ****** ****** ****** ****** ****** ****** ****** ******
   3  ****** ****** ****** ****** ****** ****** ****** ****** ****** ******
      ****** ****** ****** ****** ****** ****** ****** ****** ****** ******
      ****** ****** ****** ****** ****** ****** ****** ****** ****** ******
   4  ****** ****** ****** ****** ****** ****** ****** ****** ****** ******
      ****** ****** ****** ****** ****** ****** ****** ****** ****** ******
      ****** ****** ****** ****** ****** ****** ****** ****** ****** ******
   5  ****** ****** ****** ****** ****** ****** ****** ****** ****** ******
      ****** ****** ****** ****** ****** ****** ****** ****** ****** ******
      ****** ****** ****** ****** ****** ****** ****** ****** ****** ******
   6  ****** ****** ****** ****** ****** ****** ****** ****** ****** ******
      ****** ****** ****** ****** ****** ****** ****** ****** ****** ******
      ****** ****** ****** ****** ****** ****** ****** ****** ****** ******
   7  ****** ****** ****** ****** ****** ****** ****** ****** ****** ******
      ****** ****** ****** ****** ****** ****** ****** ****** ****** ******
      ****** ****** ****** ****** ****** ****** ****** ****** ****** ******
   8  ****** ****** ****** ****** ****** ****** ****** ****** ****** ******
      ****** ****** ****** ****** ****** ****** ****** ****** ****** ******
      ****** ****** ****** ****** ****** ****** ****** ****** ****** ******
   9  ****** ****** ****** ****** ****** ****** ****** ****** ****** ******
      ****** ****** ****** ****** ****** ****** ****** ****** ****** ******
      ****** ****** ****** ****** ****** ****** ****** ****** ****** ******
  10  ****** ****** ****** ****** ****** ****** ****** ****** ****** ******
      ****** ****** ****** ****** ****** ****** ****** ****** ****** ******
      ****** ****** ****** ****** ****** ****** ****** ****** ****** ******
  11  ****** ****** ****** ****** ****** ****** ****** ****** ****** ******
      ****** ****** ****** ****** ****** ****** ****** ****** ****** ******
      ****** ****** ****** ****** ****** ****** ****** ****** ****** ******
  12  ****** ****** ****** ****** ****** ****** ****** ****** ****** ******
      ****** ****** ****** ****** ****** ****** ****** ****** ****** ******
      ****** ****** ****** ****** ****** ****** ****** ****** ****** ******
  13  ****** ****** ****** ****** ****** ****** ****** ****** ****** ******
      ****** ****** ****** ****** ****** ****** ****** ****** ****** ******
      ****** ****** ****** ****** ****** ****** ****** ****** ****** ******
  14  ****** ****** ****** ****** ****** ****** ****** ****** ****** ******
      ****** ****** ****** ****** ****** ****** ****** ****** ****** ******
      ****** ****** ****** ****** ****** ****** ****** ****** ****** ******
  15  ****** ****** ****** ****** ****** ****** ****** ****** ****** ******
      ****** ****** ****** ****** ****** ****** ****** ****** ****** ******
      ****** ****** ****** ****** ****** ****** ****** ****** ****** ******
  16  ****** ****** ****** ****** ****** ****** ****** ****** ****** ******
      ****** ****** ****** ****** ****** ****** ****** ****** ****** ******
      ****** ****** ****** ****** ****** ****** ****** ****** ****** ******
  17  ****** ****** ****** ****** ****** ****** ****** ****** ****** ******
      ****** ****** ****** ****** ****** ****** ****** ****** ****** ******
      ****** ****** ****** ****** ****** ****** ****** ****** ****** ******
  18  ****** ****** ****** ****** ****** ****** ****** ****** ****** ******
      ****** ****** ****** ****** ****** ****** ****** ****** ****** ******
      ****** ****** ****** ****** ****** ****** ****** ****** ****** ******
  19  ****** ****** ****** ****** ****** ****** ****** ****** ****** ******
      ****** ****** ****** ****** ****** ****** ****** ****** ****** ******
      ****** ****** ****** ****** ****** ****** ****** ****** ****** ******
  20  ****** ****** ****** ****** ****** ****** ****** ****** ****** ******
      ****** ****** ****** ****** ****** ****** ****** ****** ****** ******
      ****** ****** ****** ****** ****** ****** ****** ****** ****** ******
  21  ****** ****** ****** ****** ****** ****** ****** ****** ****** ******
      ****** ****** ****** ****** ****** ****** ****** ****** ****** ******
      ****** ****** ****** ****** ****** ****** ****** ****** ****** ******
  22  ****** ****** ****** ****** ****** ****** ****** ****** ****** ******
      ****** ****** ****** ****** ****** ****** ****** ****** ****** ******
      ****** ****** ****** ****** ****** ****** ****** ****** ****** ******
  23  ****** ****** ****** ****** ****** ****** ****** ****** ****** ******
      ****** ****** ****** ****** ****** ****** ****** ****** ****** ******
      ****** ****** ****** ****** ****** ****** ****** ****** ****** ******
  24  ****** ****** ****** ****** ****** ****** ****** ****** ****** ******
      ****** ****** ****** ****** ****** ****** ****** ****** ****** ******
      ****** ****** ****** ****** ****** ****** ****** ****** ****** ******
  25  ****** ****** ****** ****** ****** ****** ****** ****** ****** ******
      ****** ****** ****** ****** ****** ****** ****** ****** ****** ******
      ****** ****** ****** ****** ****** ****** ****** ****** ****** ******

 HEAD WILL BE SAVED ON UNIT   51 AT END OF TIME STEP    1, STRESS PERIOD   11
1
  VOLUMETRIC BUDGET FOR ENTIRE MODEL AT END OF TIME STEP    1, STRESS PERIOD  11
  ------------------------------------------------------------------------------

     CUMULATIVE VOLUMES      L**3       RATES FOR THIS TIME STEP      L**3/T
     ------------------                 ------------------------

           IN:                                      IN:
           ---                                      ---
             STORAGE =    36227124.4203               STORAGE =       18037.7351
       CONSTANT HEAD =    29125964.6053         CONSTANT HEAD =       35504.7149
               WELLS =           0.0000                 WELLS =           0.0000
            RECHARGE =    23901600.0000              RECHARGE =           0.0000
      STREAM LEAKAGE =    10620146.0368        STREAM LEAKAGE =       15753.7532

            TOTAL IN =    99874835.0624              TOTAL IN =       69296.2032

          OUT:                                     OUT:
          ----                                     ----
             STORAGE =     2308220.0878               STORAGE =           0.0000
       CONSTANT HEAD =           0.0000         CONSTANT HEAD =           0.0000
               WELLS =    39198228.0201                 WELLS =       39042.0598
            RECHARGE =           0.0000              RECHARGE =           0.0000
      STREAM LEAKAGE =    58368388.9827        STREAM LEAKAGE =       30254.1485

           TOTAL OUT =    99874837.0905             TOTAL OUT =       69296.2083

            IN - OUT =          -2.0281              IN - OUT =      -5.1055E-03

 PERCENT DISCREPANCY =          -0.00     PERCENT DISCREPANCY =          -0.00






         TIME SUMMARY AT END OF TIME STEP    1 IN STRESS PERIOD   11
                    SECONDS     MINUTES      HOURS       DAYS        YEARS
                    -----------------------------------------------------------
   TIME STEP LENGTH 7.86240E+06 1.31040E+05  2184.0      91.000     0.24914    
 STRESS PERIOD TIME 7.86240E+06 1.31040E+05  2184.0      91.000     0.24914    
         TOTAL TIME 8.67456E+07 1.44576E+06  24096.      1004.0      2.7488    
1
1
                            STRESS PERIOD NO.   12, LENGTH =   91.00000    
                            -----------------------------------------------

                              NUMBER OF TIME STEPS =     1

                               MULTIPLIER FOR DELT =     1.500

                            INITIAL TIME STEP SIZE =   91.00000    

 WELL NO.  LAYER   ROW   COL   STRESS RATE         
 --------------------------------------------------
      1      1      8     21      -8122.    
      2      1      4     14      -6617.    
      3      1     10     23      -7449.    
      4      1     14     17     -0.1685E+05

      4 WELLS

                 RECHARGE =  1.000000E-03

 REUSING STREAM SEGMENT DATA FROM LAST STRESS PERIOD
 
 SOLVING FOR HEAD 


     7 CALLS TO PCG ROUTINE FOR TIME STEP   1 IN STRESS PERIOD   12
    25 TOTAL ITERATIONS

 OUTPUT CONTROL FOR STRESS PERIOD   12   TIME STEP    1
    SAVE BUDGET
    SAVE HEAD FOR ALL LAYERS
    PRINT HEAD FOR ALL LAYERS
 UBDSV2 SAVING "STREAMFLOW OUT  " ON UNIT  50 AT TIME STEP  1, STRESS PERIOD  12



 STREAM LISTING     PERIOD     12   STEP        1

 LAYER ROW COL. STREAM  RCH.  FLOW INTO     FLOW TO   FLOW OUT OF   OVRLND.     DIRECT     STREAM       STREAM     STREAM     STREAM   STREAMBED  STREAMBED
                SEG.NO.  NO.  STRM. RCH.    AQUIFER    STRM. RCH.    RUNOFF     PRECIP       ET          HEAD       DEPTH      WIDTH   CONDCTNC.   GRADIENT

   1   13    1     1     1    1.0000E+05 -1.4680E+03   1.0147E+05  0.000E+00  0.000E+00  0.000E+00  4.84067E+01  1.453E-01  2.000E+01  2.000E+04 -7.340E-02
   1   13    2     1     2    1.0147E+05 -2.3833E+03   1.0385E+05  0.000E+00  0.000E+00  0.000E+00  4.79310E+01  1.469E-01  2.000E+01  2.000E+04 -1.192E-01
   1   14    3     1     3    1.0385E+05 -4.1630E+02   1.0427E+05  0.000E+00  0.000E+00  0.000E+00  4.74550E+01  1.481E-01  2.000E+01  2.000E+04 -2.081E-02
   1   15    4     1     4    1.0427E+05 -3.9832E+02   1.0467E+05  0.000E+00  0.000E+00  0.000E+00  4.69780E+01  1.485E-01  2.000E+01  2.000E+04 -1.992E-02
   1   16    5     1     5    1.0467E+05 -1.5686E+03   1.0623E+05  0.000E+00  0.000E+00  0.000E+00  4.65016E+01  1.493E-01  2.000E+01  2.000E+04 -7.843E-02
   1   16    6     1     6    1.0623E+05 -9.8137E+02   1.0722E+05  0.000E+00  0.000E+00  0.000E+00  4.60254E+01  1.504E-01  2.000E+01  2.000E+04 -4.907E-02
   1   16    7     1     7    1.0722E+05 -9.5602E+02   1.0817E+05  0.000E+00  0.000E+00  0.000E+00  4.55490E+01  1.512E-01  2.000E+01  2.000E+04 -4.780E-02
   1   16    8     1     8    1.0817E+05 -9.4390E+02   1.0912E+05  0.000E+00  0.000E+00  0.000E+00  4.50725E+01  1.520E-01  2.000E+01  2.000E+04 -4.720E-02
   1   16    9     1     9    1.0912E+05 -9.2568E+02   1.1004E+05  0.000E+00  0.000E+00  0.000E+00  4.45960E+01  1.528E-01  2.000E+01  2.000E+04 -4.628E-02
   1   16   10     1    10    1.1004E+05 -8.9697E+02   1.1094E+05  0.000E+00  0.000E+00  0.000E+00  4.41195E+01  1.536E-01  2.000E+01  2.000E+04 -4.485E-02
   1   16   11     1    11    1.1094E+05 -8.5973E+02   1.1180E+05  0.000E+00  0.000E+00  0.000E+00  4.36429E+01  1.543E-01  2.000E+01  2.000E+04 -4.299E-02
   1   16   12     1    12    1.1180E+05 -1.1585E+03   1.1296E+05  0.000E+00  0.000E+00  0.000E+00  4.31665E+01  1.551E-01  2.000E+01  2.000E+04 -5.793E-02
   1   15   13     1    13    1.1296E+05 -5.7807E+02   1.1353E+05  0.000E+00  0.000E+00  0.000E+00  4.26900E+01  1.559E-01  2.000E+01  2.000E+04 -2.890E-02
   1   14   14     1    14    1.1353E+05  1.6008E+02   1.1337E+05  0.000E+00  0.000E+00  0.000E+00  4.22129E+01  1.560E-01  2.000E+01  2.000E+04  8.004E-03
   1   13   15     1    15    1.1337E+05  9.8520E+02   1.1239E+05  0.000E+00  0.000E+00  0.000E+00  4.17351E+01  1.556E-01  2.000E+01  2.000E+04  4.926E-02
   1   12   16     1    16    1.1239E+05 -7.4909E+01   1.1246E+05  0.000E+00  0.000E+00  0.000E+00  4.12575E+01  1.552E-01  2.000E+01  2.000E+04 -3.745E-03
   1   12   17     1    17    1.1246E+05  1.5782E+03   1.1089E+05  0.000E+00  0.000E+00  0.000E+00  4.07796E+01  1.546E-01  2.000E+01  2.000E+04  7.891E-02
   1   12   18     1    18    1.1089E+05  8.9999E+02   1.0999E+05  0.000E+00  0.000E+00  0.000E+00  4.03013E+01  1.535E-01  2.000E+01  2.000E+04  4.500E-02
   1   12   19     1    19    1.0999E+05  3.4995E+02   1.0964E+05  0.000E+00  0.000E+00  0.000E+00  3.98235E+01  1.530E-01  2.000E+01  2.000E+04  1.750E-02
   1   13   20     1    20    1.0964E+05  7.5731E+02   1.0888E+05  0.000E+00  0.000E+00  0.000E+00  3.93457E+01  1.525E-01  2.000E+01  2.000E+04  3.787E-02
   1   14   21     1    21    1.0888E+05 -5.5463E+01   1.0893E+05  0.000E+00  0.000E+00  0.000E+00  3.88682E+01  1.522E-01  2.000E+01  2.000E+04 -2.773E-03
   1   14   22     1    22    1.0893E+05  5.1091E+03   1.0383E+05  0.000E+00  0.000E+00  0.000E+00  3.83888E+01  1.501E-01  2.000E+01  2.000E+04  2.555E-01
   1    9   30     2     1    5.0000E+04 -3.5888E+02   5.0359E+04  0.000E+00  0.000E+00  0.000E+00  4.02411E+01  1.161E-01  2.000E+01  2.000E+04 -1.794E-02
   1    9   29     2     2    5.0359E+04 -6.1345E+02   5.0972E+04  0.000E+00  0.000E+00  0.000E+00  3.99918E+01  1.168E-01  2.000E+01  2.000E+04 -3.067E-02
   1    9   28     2     3    5.0972E+04 -7.4579E+02   5.1718E+04  0.000E+00  0.000E+00  0.000E+00  3.97427E+01  1.177E-01  2.000E+01  2.000E+04 -3.729E-02
   1    9   27     2     4    5.1718E+04 -1.1660E+03   5.2884E+04  0.000E+00  0.000E+00  0.000E+00  3.94940E+01  1.190E-01  2.000E+01  2.000E+04 -5.830E-02
   1   10   26     2     5    5.2884E+04 -3.1801E+01   5.2916E+04  0.000E+00  0.000E+00  0.000E+00  3.92449E+01  1.199E-01  2.000E+01  2.000E+04 -1.590E-03
   1   11   25     2     6    5.2916E+04  6.9339E+02   5.2223E+04  0.000E+00  0.000E+00  0.000E+00  3.89944E+01  1.194E-01  2.000E+01  2.000E+04  3.467E-02
   1   12   24     2     7    5.2223E+04  7.9774E+02   5.1425E+04  0.000E+00  0.000E+00  0.000E+00  3.87434E+01  1.184E-01  2.000E+01  2.000E+04  3.989E-02
   1   13   23     2     8    5.1425E+04  5.6789E+01   5.1368E+04  0.000E+00  0.000E+00  0.000E+00  3.84928E+01  1.178E-01  2.000E+01  2.000E+04  2.839E-03
   1   14   22     2     9    5.1368E+04  2.1592E+03   4.9209E+04  0.000E+00  0.000E+00  0.000E+00  3.82413E+01  1.163E-01  2.000E+01  2.000E+04  1.080E-01
   1   14   22     3     1    1.5303E+05 -8.4053E+03   1.6144E+05  0.000E+00  0.000E+00  0.000E+00  3.77130E+01  1.575E-01  2.000E+01  2.000E+04 -4.203E-01
   1   15   23     3     2    1.6144E+05 -4.3256E+02   1.6187E+05  0.000E+00  0.000E+00  0.000E+00  3.68268E+01  1.601E-01  2.000E+01  2.000E+04 -2.163E-02
   1   15   24     3     3    1.6187E+05 -2.5714E+02   1.6213E+05  0.000E+00  0.000E+00  0.000E+00  3.59381E+01  1.603E-01  2.000E+01  2.000E+04 -1.286E-02
   1   15   25     3     4    1.6213E+05 -2.5909E+02   1.6239E+05  0.000E+00  0.000E+00  0.000E+00  3.50494E+01  1.605E-01  2.000E+01  2.000E+04 -1.295E-02
   1   15   26     3     5    1.6239E+05 -3.2371E+02   1.6271E+05  0.000E+00  0.000E+00  0.000E+00  3.41607E+01  1.607E-01  2.000E+01  2.000E+04 -1.619E-02
   1   16   27     3     6    1.6271E+05 -3.4970E+02   1.6306E+05  0.000E+00  0.000E+00  0.000E+00  3.32720E+01  1.609E-01  2.000E+01  2.000E+04 -1.748E-02
   1   17   28     3     7    1.6306E+05 -1.4990E+03   1.6456E+05  0.000E+00  0.000E+00  0.000E+00  3.23836E+01  1.614E-01  2.000E+01  2.000E+04 -7.495E-02
   1   18   29     3     8    1.6456E+05 -2.7792E+03   1.6734E+05  0.000E+00  0.000E+00  0.000E+00  3.14960E+01  1.627E-01  2.000E+01  2.000E+04 -1.390E-01
   1   18   30     3     9    1.6734E+05 -3.1057E+03   1.7045E+05  0.000E+00  0.000E+00  0.000E+00  3.06088E+01  1.644E-01  2.000E+01  2.000E+04 -1.553E-01



1
              HEAD IN LAYER   1 AT END OF TIME STEP   1 IN STRESS PERIOD   12
  ---------------------------------------------------------------------------

          1      2      3      4      5      6      7      8      9     10
         11     12     13     14     15     16     17     18     19     20
         21     22     23     24     25     26     27     28     29     30
 .........................................................................
   1  ****** ****** ****** ****** ****** ****** ****** ****** ****** ******
      ****** ****** ****** ****** ****** ****** ****** ****** ****** ******
      ****** ****** ****** ****** ****** ****** ****** ****** ****** ******
   2  ****** ****** ****** ****** ****** ****** ****** ****** ****** ******
      ****** ****** ****** ****** ****** ****** ****** ****** ****** ******
      ****** ****** ****** ****** ****** ****** ****** ****** ****** ******
   3  ****** ****** ****** ****** ****** ****** ****** ****** ****** ******
      ****** ****** ****** ****** ****** ****** ****** ****** ****** ******
      ****** ****** ****** ****** ****** ****** ****** ****** ****** ******
   4  ****** ****** ****** ****** ****** ****** ****** ****** ****** ******
      ****** ****** ****** ****** ****** ****** ****** ****** ****** ******
      ****** ****** ****** ****** ****** ****** ****** ****** ****** ******
   5  ****** ****** ****** ****** ****** ****** ****** ****** ****** ******
      ****** ****** ****** ****** ****** ****** ****** ****** ****** ******
      ****** ****** ****** ****** ****** ****** ****** ****** ****** ******
   6  ****** ****** ****** ****** ****** ****** ****** ****** ****** ******
      ****** ****** ****** ****** ****** ****** ****** ****** ****** ******
      ****** ****** ****** ****** ****** ****** ****** ****** ****** ******
   7  ****** ****** ****** ****** ****** ****** ****** ****** ****** ******
      ****** ****** ****** ****** ****** ****** ****** ****** ****** ******
      ****** ****** ****** ****** ****** ****** ****** ****** ****** ******
   8  ****** ****** ****** ****** ****** ****** ****** ****** ****** ******
      ****** ****** ****** ****** ****** ****** ****** ****** ****** ******
      ****** ****** ****** ****** ****** ****** ****** ****** ****** ******
   9  ****** ****** ****** ****** ****** ****** ****** ****** ****** ******
      ****** ****** ****** ****** ****** ****** ****** ****** ****** ******
      ****** ****** ****** ****** ****** ****** ****** ****** ****** ******
  10  ****** ****** ****** ****** ****** ****** ****** ****** ****** ******
      ****** ****** ****** ****** ****** ****** ****** ****** ****** ******
      ****** ****** ****** ****** ****** ****** ****** ****** ****** ******
  11  ****** ****** ****** ****** ****** ****** ****** ****** ****** ******
      ****** ****** ****** ****** ****** ****** ****** ****** ****** ******
      ****** ****** ****** ****** ****** ****** ****** ****** ****** ******
  12  ****** ****** ****** ****** ****** ****** ****** ****** ****** ******
      ****** ****** ****** ****** ****** ****** ****** ****** ****** ******
      ****** ****** ****** ****** ****** ****** ****** ****** ****** ******
  13  ****** ****** ****** ****** ****** ****** ****** ****** ****** ******
      ****** ****** ****** ****** ****** ****** ****** ****** ****** ******
      ****** ****** ****** ****** ****** ****** ****** ****** ****** ******
  14  ****** ****** ****** ****** ****** ****** ****** ****** ****** ******
      ****** ****** ****** ****** ****** ****** ****** ****** ****** ******
      ****** ****** ****** ****** ****** ****** ****** ****** ****** ******
  15  ****** ****** ****** ****** ****** ****** ****** ****** ****** ******
      ****** ****** ****** ****** ****** ****** ****** ****** ****** ******
      ****** ****** ****** ****** ****** ****** ****** ****** ****** ******
  16  ****** ****** ****** ****** ****** ****** ****** ****** ****** ******
      ****** ****** ****** ****** ****** ****** ****** ****** ****** ******
      ****** ****** ****** ****** ****** ****** ****** ****** ****** ******
  17  ****** ****** ****** ****** ****** ****** ****** ****** ****** ******
      ****** ****** ****** ****** ****** ****** ****** ****** ****** ******
      ****** ****** ****** ****** ****** ****** ****** ****** ****** ******
  18  ****** ****** ****** ****** ****** ****** ****** ****** ****** ******
      ****** ****** ****** ****** ****** ****** ****** ****** ****** ******
      ****** ****** ****** ****** ****** ****** ****** ****** ****** ******
  19  ****** ****** ****** ****** ****** ****** ****** ****** ****** ******
      ****** ****** ****** ****** ****** ****** ****** ****** ****** ******
      ****** ****** ****** ****** ****** ****** ****** ****** ****** ******
  20  ****** ****** ****** ****** ****** ****** ****** ****** ****** ******
      ****** ****** ****** ****** ****** ****** ****** ****** ****** ******
      ****** ****** ****** ****** ****** ****** ****** ****** ****** ******
  21  ****** ****** ****** ****** ****** ****** ****** ****** ****** ******
      ****** ****** ****** ****** ****** ****** ****** ****** ****** ******
      ****** ****** ****** ****** ****** ****** ****** ****** ****** ******
  22  ****** ****** ****** ****** ****** ****** ****** ****** ****** ******
      ****** ****** ****** ****** ****** ****** ****** ****** ****** ******
      ****** ****** ****** ****** ****** ****** ****** ****** ****** ******
  23  ****** ****** ****** ****** ****** ****** ****** ****** ****** ******
      ****** ****** ****** ****** ****** ****** ****** ****** ****** ******
      ****** ****** ****** ****** ****** ****** ****** ****** ****** ******
  24  ****** ****** ****** ****** ****** ****** ****** ****** ****** ******
      ****** ****** ****** ****** ****** ****** ****** ****** ****** ******
      ****** ****** ****** ****** ****** ****** ****** ****** ****** ******
  25  ****** ****** ****** ****** ****** ****** ****** ****** ****** ******
      ****** ****** ****** ****** ****** ****** ****** ****** ****** ******
      ****** ****** ****** ****** ****** ****** ****** ****** ****** ******

 HEAD WILL BE SAVED ON UNIT   51 AT END OF TIME STEP    1, STRESS PERIOD   12
1
  VOLUMETRIC BUDGET FOR ENTIRE MODEL AT END OF TIME STEP    1, STRESS PERIOD  12
  ------------------------------------------------------------------------------

     CUMULATIVE VOLUMES      L**3       RATES FOR THIS TIME STEP      L**3/T
     ------------------                 ------------------------

           IN:                                      IN:
           ---                                      ---
             STORAGE =    36229342.6432               STORAGE =          24.3761
       CONSTANT HEAD =    32294252.6316         CONSTANT HEAD =       34816.3519
               WELLS =           0.0000                 WELLS =           0.0000
            RECHARGE =    26413200.0000              RECHARGE =       27600.0000
      STREAM LEAKAGE =    11852922.5188        STREAM LEAKAGE =       13546.9943

            TOTAL IN =   106789717.7936              TOTAL IN =       75987.7223

          OUT:                                     OUT:
          ----                                     ----
             STORAGE =     2576960.2099               STORAGE =        2953.1882
       CONSTANT HEAD =           0.0000         CONSTANT HEAD =           0.0000
               WELLS =    42751055.4601                 WELLS =       39042.0598
            RECHARGE =           0.0000              RECHARGE =           0.0000
      STREAM LEAKAGE =    61461704.1440        STREAM LEAKAGE =       33992.4743

           TOTAL OUT =   106789719.8141             TOTAL OUT =       75987.7222

            IN - OUT =          -2.0205              IN - OUT =       8.4460E-05

 PERCENT DISCREPANCY =          -0.00     PERCENT DISCREPANCY =           0.00






         TIME SUMMARY AT END OF TIME STEP    1 IN STRESS PERIOD   12
                    SECONDS     MINUTES      HOURS       DAYS        YEARS
                    -----------------------------------------------------------
   TIME STEP LENGTH 7.86240E+06 1.31040E+05  2184.0      91.000     0.24914    
 STRESS PERIOD TIME 7.86240E+06 1.31040E+05  2184.0      91.000     0.24914    
         TOTAL TIME 9.46080E+07 1.57680E+06  26280.      1095.0      2.9979    
1

 Run end date and time (yyyy/mm/dd hh:mm:ss): 2018/10/10 18:02:03
 Elapsed run time:  0.067 Seconds

