                                  MODFLOW-2005     
      U.S. GEOLOGICAL SURVEY MODULAR FINITE-DIFFERENCE GROUND-WATER FLOW MODEL
                            VERSION 1.11.00 8/8/2013

 LIST FILE: supply2.lst
                         UNIT   10

 OPENING ..\data\supply.dis
 FILE TYPE:DIS   UNIT   11   STATUS:OLD    
 FORMAT:FORMATTED              ACCESS:SEQUENTIAL          

 OPENING ..\data\supply.ba6
 FILE TYPE:BAS6   UNIT   12   STATUS:OLD    
 FORMAT:FORMATTED              ACCESS:SEQUENTIAL          

 OPENING ..\data\supply.bc6
 FILE TYPE:BCF6   UNIT   13   STATUS:OLD    
 FORMAT:FORMATTED              ACCESS:SEQUENTIAL          

 OPENING ..\data\supply.rch
 FILE TYPE:RCH   UNIT   15   STATUS:OLD    
 FORMAT:FORMATTED              ACCESS:SEQUENTIAL          

 OPENING ..\data\supply2.sfr
 FILE TYPE:SFR   UNIT   16   STATUS:OLD    
 FORMAT:FORMATTED              ACCESS:SEQUENTIAL          

 OPENING ..\data\supply.oc
 FILE TYPE:OC   UNIT   17   STATUS:OLD    
 FORMAT:FORMATTED              ACCESS:SEQUENTIAL          

 OPENING ..\data\supply.pcg
 FILE TYPE:PCG   UNIT   18   STATUS:OLD    
 FORMAT:FORMATTED              ACCESS:SEQUENTIAL          

 OPENING supply2.wel
 FILE TYPE:WEL   UNIT   19   STATUS:OLD    
 FORMAT:FORMATTED              ACCESS:SEQUENTIAL          

 OPENING supply2sf.bin
 FILE TYPE:DATA(BINARY)   UNIT   50   STATUS:UNKNOWN
 FORMAT:BINARY                 ACCESS:SEQUENTIAL          

 OPENING supply2hd.bin
 FILE TYPE:DATA(BINARY)   UNIT   51   STATUS:UNKNOWN
 FORMAT:BINARY                 ACCESS:SEQUENTIAL          

 BAS -- BASIC PACKAGE, VERSION 7, 5/2/2005 INPUT READ FROM UNIT   12
 
 MODFLOW was compiled using uniform precision
 Precision of REAL and DOUBLE PRECISION variables:          15

 DISCRETIZATION INPUT DATA READ FROM UNIT   11
    1 LAYERS        25 ROWS        30 COLUMNS
   12 STRESS PERIOD(S) IN SIMULATION
 MODEL TIME UNIT IS DAYS
 MODEL LENGTH UNIT IS UNDEFINED
  Confining bed flag for each layer:
   0

                     DELR =   200.000    

                     DELC =   200.000    

 TOP ELEVATION OF LAYER 1 =  100.0000    

   MODEL LAYER BOTTOM EL. =   0.00000     FOR LAYER   1


 STRESS PERIOD     LENGTH       TIME STEPS     MULTIPLIER FOR DELT    SS FLAG
 ----------------------------------------------------------------------------
        1         92.00000          1                    1.500         TR
        2         91.00000          1                    1.500         TR
        3         91.00000          1                    1.500         TR
        4         91.00000          1                    1.500         TR
        5         92.00000          1                    1.500         TR
        6         91.00000          1                    1.500         TR
        7         91.00000          1                    1.500         TR
        8         91.00000          1                    1.500         TR
        9         92.00000          1                    1.500         TR
       10         91.00000          1                    1.500         TR
       11         91.00000          1                    1.500         TR
       12         91.00000          1                    1.500         TR

 TRANSIENT SIMULATION



 
 #MODOFC transient water supply sample problem                                   
 #                                                                               
 THE FREE FORMAT OPTION HAS BEEN SELECTED



                     BOUNDARY ARRAY FOR LAYER   1
 READING ON UNIT   12 WITH FORMAT: (20I4)              

 AQUIFER HEAD WILL BE SET TO   0.0000     AT ALL NO-FLOW NODES (IBOUND=0).



                       INITIAL HEAD FOR LAYER   1
 READING ON UNIT   12 WITH FORMAT: (10F13.0)           

 OUTPUT CONTROL IS SPECIFIED ONLY AT TIME STEPS FOR WHICH OUTPUT IS DESIRED
 COMPACT CELL-BY-CELL BUDGET FILES WILL BE WRITTEN
 HEAD PRINT FORMAT CODE IS  18    DRAWDOWN PRINT FORMAT CODE IS   0
 HEADS WILL BE SAVED ON UNIT   51    DRAWDOWNS WILL BE SAVED ON UNIT    0

 BCF -- BLOCK-CENTERED FLOW PACKAGE, VERSION 7, 5/2/2005
         INPUT READ FROM UNIT 13
 TRANSIENT SIMULATION
 HEAD AT CELLS THAT CONVERT TO DRY=   0.0000    
 WETTING CAPABILITY IS NOT ACTIVE
      LAYER  LAYER-TYPE CODE     INTERBLOCK T
      --------------------------------------------
         1            0          0 -- HARMONIC    

 COLUMN TO ROW ANISOTROPY =  1.000000    

     PRIMARY STORAGE COEF =  5.000000E-02 FOR LAYER   1

     TRANSMIS. ALONG ROWS =   5000.00     FOR LAYER   1

 WEL -- WELL PACKAGE, VERSION 7, 5/2/2005 INPUT READ FROM UNIT   19
 # Well package input file written by MMProc
 No named parameters
 MAXIMUM OF      7 ACTIVE WELLS AT ONE TIME


     0 Well parameters

 RCH -- RECHARGE PACKAGE, VERSION 7, 5/2/2005 INPUT READ FROM UNIT   15
 No named parameters
 OPTION 1 -- RECHARGE TO TOP LAYER


     0 Recharge parameters

 SFR7 -- STREAMFLOW ROUTING PACKAGE, VERSION 1.0.7, 2013-01-15
         INPUT READ FROM UNIT  16
 #  Supply2 test problem for GWM-VI
 #  The eighth entry in the first data line is ISTCB2 -
 #    Setting this to a negative number indicates that
 #    streamflows out of the reach will be saved to a
 #    binary file.  The absolute value of ISTCB2 is the
 #    unit to which unformatted flows will be written.
 #
 No named parameters
 Segment information will not be 
 read by reach
 No named parameters
 No specifed inflow files


 NUMBER OF STREAM REACHES IS   40

 NUMBER OF STREAM SEGMENTS IS    3

 NUMBER OF STREAM PARAMETERS IS    0

 NUMBER OF STREAM SEGMENTS DEFINED USING PARAMETERS IS              0

 MAXIMUM ERROR FOR STREAM LEAKAGE RATES IS  1.00E-04

 CONSTANT FOR MANNINGS EQUATION IS  1.2839E+05





   STREAM NETWORK DESCRIPTION: 

   LAYER    ROW    COL   SEGMENT   REACH     LENGTH
                          NUMBER   NUMBER    IN CELL        
   --------------------------------------------------
      1     13      1       1        1    2.0000E+02
      1     13      2       1        2    2.0000E+02
      1     14      3       1        3    2.0000E+02
      1     15      4       1        4    2.0000E+02
      1     16      5       1        5    2.0000E+02
      1     16      6       1        6    2.0000E+02
      1     16      7       1        7    2.0000E+02
      1     16      8       1        8    2.0000E+02
      1     16      9       1        9    2.0000E+02
      1     16     10       1       10    2.0000E+02
      1     16     11       1       11    2.0000E+02
      1     16     12       1       12    2.0000E+02
      1     15     13       1       13    2.0000E+02
      1     14     14       1       14    2.0000E+02
      1     13     15       1       15    2.0000E+02
      1     12     16       1       16    2.0000E+02
      1     12     17       1       17    2.0000E+02
      1     12     18       1       18    2.0000E+02
      1     12     19       1       19    2.0000E+02
      1     13     20       1       20    2.0000E+02
      1     14     21       1       21    2.0000E+02
      1     14     22       1       22    2.0000E+02
      1      9     30       2        1    2.0000E+02
      1      9     29       2        2    2.0000E+02
      1      9     28       2        3    2.0000E+02
      1      9     27       2        4    2.0000E+02
      1     10     26       2        5    2.0000E+02
      1     11     25       2        6    2.0000E+02
      1     12     24       2        7    2.0000E+02
      1     13     23       2        8    2.0000E+02
      1     14     22       2        9    2.0000E+02
      1     14     22       3        1    2.0000E+02
      1     15     23       3        2    2.0000E+02
      1     15     24       3        3    2.0000E+02
      1     15     25       3        4    2.0000E+02
      1     15     26       3        5    2.0000E+02
      1     16     27       3        6    2.0000E+02
      1     17     28       3        7    2.0000E+02
      1     18     29       3        8    2.0000E+02
      1     18     30       3        9    2.0000E+02




 PCG -- CONJUGATE-GRADIENT SOLUTION PACKAGE, VERSION 7, 5/2/2005
 MAXIMUM OF    500 CALLS OF SOLUTION ROUTINE
 MAXIMUM OF      5 INTERNAL ITERATIONS PER CALL TO SOLUTION ROUTINE
 MATRIX PRECONDITIONING TYPE :    1



                                    SOLUTION BY THE CONJUGATE-GRADIENT METHOD
                                   -------------------------------------------
                    MAXIMUM NUMBER OF CALLS TO PCG ROUTINE =      500
                        MAXIMUM ITERATIONS PER CALL TO PCG =        5
                               MATRIX PRECONDITIONING TYPE =        1
        RELAXATION FACTOR (ONLY USED WITH PRECOND. TYPE 1) =    0.10000E+01
 PARAMETER OF POLYNOMIAL PRECOND. = 2 (2) OR IS CALCULATED :        0
                         HEAD CHANGE CRITERION FOR CLOSURE =    0.10000E-05
                     RESIDUAL CHANGE CRITERION FOR CLOSURE =    0.10000E+01
            PCG HEAD AND RESIDUAL CHANGE PRINTOUT INTERVAL =        1
     PRINTING FROM SOLVER IS LIMITED(1) OR SUPPRESSED (>1) =        1
                            STEADY-STATE DAMPING PARAMETER =    0.10000E+01
                               TRANSIENT DAMPING PARAMETER =    0.10000E+01
1
                            STRESS PERIOD NO.    1, LENGTH =   92.00000    
                            -----------------------------------------------

                              NUMBER OF TIME STEPS =     1

                               MULTIPLIER FOR DELT =     1.500

                            INITIAL TIME STEP SIZE =   92.00000    

 WELL NO.  LAYER   ROW   COL   STRESS RATE         
 --------------------------------------------------
      1      1     22     29     -0.3000E+05
      2      1     24     24     -0.5000E+05
      3      1     24     27      -5001.    

      3 WELLS

                 RECHARGE =  5.000000E-04



 CLASSIFICATION & COUNT OF STREAM SEGMENTS BASED ON SOURCE OF INFLOW:

                HEADWATER     DIVERSION     RECEIVES TRIBUTARY FLOW
                ---------     ---------     -----------------------
                     2              0               1



                    INPUT DATA FOR EACH STREAM SEGMENT
 ---------------------------------------------------------------------------------------------

 SEGMENT    SEG.     INFLOW   OVERLAND   STREAM    STREAM   ICALC  OUTFLOW  DIVERSION PRIORITY
    NO.    LENGTH     RATE     RUNOFF      ET       PPT.    METH.  TO SEG.  FROM SEG.    NO.

      1  4.400E+03 1.000E+05 0.000E+00 0.000E+00 0.000E+00    1        3        0        0
      2  1.800E+03 5.000E+04 0.000E+00 0.000E+00 0.000E+00    1        3        0        0
      3  1.800E+03 0.000E+00 0.000E+00 0.000E+00 0.000E+00    1        0        0        0


         STREAMBED PROPERTIES AND STREAM DIMENSIONS

 SEGMENT     BED HYD. COND.      BED THICKNESS     ELEV.-TOP OF BED     WIDTH OF STREAM     DEPTH OF STREAM    STREAM ROUGHNESS
    No.     UPPER     LOWER     UPPER     LOWER     UPPER     LOWER     UPPER     LOWER     UPPER     LOWER   CHANNEL      BANK

     1  5.000E+00 5.000E+00 1.000E+00 1.000E+00 4.850E+01 3.800E+01 2.000E+01 2.000E+01                     5.000E-02
     2  5.000E+00 5.000E+00 1.000E+00 1.000E+00 4.025E+01 3.800E+01 2.000E+01 2.000E+01                     5.000E-02
     3  5.000E+00 5.000E+00 1.000E+00 1.000E+00 3.800E+01 3.000E+01 2.000E+01 2.000E+01                     5.000E-02



 
 SOLVING FOR HEAD 


     8 CALLS TO PCG ROUTINE FOR TIME STEP   1 IN STRESS PERIOD    1
    32 TOTAL ITERATIONS

 OUTPUT CONTROL FOR STRESS PERIOD    1   TIME STEP    1
    SAVE BUDGET
    SAVE HEAD FOR ALL LAYERS
    PRINT HEAD FOR ALL LAYERS
 UBDSV2 SAVING "STREAMFLOW OUT  " ON UNIT  50 AT TIME STEP  1, STRESS PERIOD   1



 STREAM LISTING     PERIOD      1   STEP        1

 LAYER ROW COL. STREAM  RCH.  FLOW INTO     FLOW TO   FLOW OUT OF   OVRLND.     DIRECT     STREAM       STREAM     STREAM     STREAM   STREAMBED  STREAMBED
                SEG.NO.  NO.  STRM. RCH.    AQUIFER    STRM. RCH.    RUNOFF     PRECIP       ET          HEAD       DEPTH      WIDTH   CONDCTNC.   GRADIENT

   1   13    1     1     1    1.0000E+05 -3.1697E+04   1.3170E+05  0.000E+00  0.000E+00  0.000E+00  4.84194E+01  1.580E-01  2.000E+01  2.000E+04 -1.585E+00
   1   13    2     1     2    1.3170E+05 -4.2168E+04   1.7386E+05  0.000E+00  0.000E+00  0.000E+00  4.79706E+01  1.865E-01  2.000E+01  2.000E+04 -2.108E+00
   1   14    3     1     3    1.7386E+05 -3.7704E+04   2.1157E+05  0.000E+00  0.000E+00  0.000E+00  4.75212E+01  2.144E-01  2.000E+01  2.000E+04 -1.885E+00
   1   15    4     1     4    2.1157E+05 -3.6756E+04   2.4832E+05  0.000E+00  0.000E+00  0.000E+00  4.70679E+01  2.384E-01  2.000E+01  2.000E+04 -1.838E+00
   1   16    5     1     5    2.4832E+05 -3.7690E+04   2.8601E+05  0.000E+00  0.000E+00  0.000E+00  4.66131E+01  2.609E-01  2.000E+01  2.000E+04 -1.884E+00
   1   16    6     1     6    2.8601E+05 -3.2966E+04   3.1898E+05  0.000E+00  0.000E+00  0.000E+00  4.61560E+01  2.810E-01  2.000E+01  2.000E+04 -1.648E+00
   1   16    7     1     7    3.1898E+05 -3.2784E+04   3.5176E+05  0.000E+00  0.000E+00  0.000E+00  4.56967E+01  2.990E-01  2.000E+01  2.000E+04 -1.639E+00
   1   16    8     1     8    3.5176E+05 -3.3001E+04   3.8477E+05  0.000E+00  0.000E+00  0.000E+00  4.52367E+01  3.162E-01  2.000E+01  2.000E+04 -1.650E+00
   1   16    9     1     9    3.8477E+05 -3.3101E+04   4.1787E+05  0.000E+00  0.000E+00  0.000E+00  4.47762E+01  3.330E-01  2.000E+01  2.000E+04 -1.655E+00
   1   16   10     1    10    4.1787E+05 -3.3136E+04   4.5100E+05  0.000E+00  0.000E+00  0.000E+00  4.43151E+01  3.492E-01  2.000E+01  2.000E+04 -1.657E+00
   1   16   11     1    11    4.5100E+05 -3.3791E+04   4.8479E+05  0.000E+00  0.000E+00  0.000E+00  4.38537E+01  3.651E-01  2.000E+01  2.000E+04 -1.690E+00
   1   16   12     1    12    4.8479E+05 -3.9842E+04   5.2463E+05  0.000E+00  0.000E+00  0.000E+00  4.33934E+01  3.821E-01  2.000E+01  2.000E+04 -1.992E+00
   1   15   13     1    13    5.2463E+05 -3.9223E+04   5.6386E+05  0.000E+00  0.000E+00  0.000E+00  4.29339E+01  3.998E-01  2.000E+01  2.000E+04 -1.961E+00
   1   14   14     1    14    5.6386E+05 -4.0047E+04   6.0390E+05  0.000E+00  0.000E+00  0.000E+00  4.24738E+01  4.170E-01  2.000E+01  2.000E+04 -2.002E+00
   1   13   15     1    15    6.0390E+05 -4.2245E+04   6.4615E+05  0.000E+00  0.000E+00  0.000E+00  4.20139E+01  4.344E-01  2.000E+01  2.000E+04 -2.112E+00
   1   12   16     1    16    6.4615E+05 -4.8012E+04   6.9416E+05  0.000E+00  0.000E+00  0.000E+00  4.15552E+01  4.529E-01  2.000E+01  2.000E+04 -2.401E+00
   1   12   17     1    17    6.9416E+05 -3.7734E+04   7.3190E+05  0.000E+00  0.000E+00  0.000E+00  4.10951E+01  4.701E-01  2.000E+01  2.000E+04 -1.887E+00
   1   12   18     1    18    7.3190E+05 -3.5979E+04   7.6787E+05  0.000E+00  0.000E+00  0.000E+00  4.06323E+01  4.845E-01  2.000E+01  2.000E+04 -1.799E+00
   1   12   19     1    19    7.6787E+05 -4.0413E+04   8.0829E+05  0.000E+00  0.000E+00  0.000E+00  4.01696E+01  4.992E-01  2.000E+01  2.000E+04 -2.021E+00
   1   13   20     1    20    8.0829E+05 -3.0513E+04   8.3880E+05  0.000E+00  0.000E+00  0.000E+00  3.97057E+01  5.126E-01  2.000E+01  2.000E+04 -1.526E+00
   1   14   21     1    21    8.3880E+05 -2.2693E+04   8.6149E+05  0.000E+00  0.000E+00  0.000E+00  3.92383E+01  5.224E-01  2.000E+01  2.000E+04 -1.135E+00
   1   14   22     1    22    8.6149E+05 -2.8386E+03   8.6433E+05  0.000E+00  0.000E+00  0.000E+00  3.87658E+01  5.271E-01  2.000E+01  2.000E+04 -1.419E-01
   1    9   30     2     1    5.0000E+04 -2.9635E+04   7.9635E+04  0.000E+00  0.000E+00  0.000E+00  4.02604E+01  1.354E-01  2.000E+01  2.000E+04 -1.482E+00
   1    9   29     2     2    7.9635E+04 -3.2078E+04   1.1171E+05  0.000E+00  0.000E+00  0.000E+00  4.00460E+01  1.710E-01  2.000E+01  2.000E+04 -1.604E+00
   1    9   28     2     3    1.1171E+05 -3.6408E+04   1.4812E+05  0.000E+00  0.000E+00  0.000E+00  3.98305E+01  2.055E-01  2.000E+01  2.000E+04 -1.820E+00
   1    9   27     2     4    1.4812E+05 -5.1055E+04   1.9918E+05  0.000E+00  0.000E+00  0.000E+00  3.96196E+01  2.446E-01  2.000E+01  2.000E+04 -2.553E+00
   1   10   26     2     5    1.9918E+05 -3.7452E+04   2.3663E+05  0.000E+00  0.000E+00  0.000E+00  3.94052E+01  2.802E-01  2.000E+01  2.000E+04 -1.873E+00
   1   11   25     2     6    2.3663E+05 -2.9058E+04   2.6569E+05  0.000E+00  0.000E+00  0.000E+00  3.91802E+01  3.052E-01  2.000E+01  2.000E+04 -1.453E+00
   1   12   24     2     7    2.6569E+05 -2.2097E+04   2.8778E+05  0.000E+00  0.000E+00  0.000E+00  3.89485E+01  3.235E-01  2.000E+01  2.000E+04 -1.105E+00
   1   13   23     2     8    2.8778E+05 -1.6044E+04   3.0383E+05  0.000E+00  0.000E+00  0.000E+00  3.87116E+01  3.366E-01  2.000E+01  2.000E+04 -8.022E-01
   1   14   22     2     9    3.0383E+05 -8.7527E+03   3.1258E+05  0.000E+00  0.000E+00  0.000E+00  3.84700E+01  3.450E-01  2.000E+01  2.000E+04 -4.376E-01
   1   14   22     3     1    1.1769E+06 -1.6460E+04   1.1934E+06  0.000E+00  0.000E+00  0.000E+00  3.80847E+01  5.291E-01  2.000E+01  2.000E+04 -8.230E-01
   1   15   23     3     2    1.1934E+06 -2.6026E+04   1.2194E+06  0.000E+00  0.000E+00  0.000E+00  3.72015E+01  5.348E-01  2.000E+01  2.000E+04 -1.301E+00
   1   15   24     3     3    1.2194E+06 -2.1733E+04   1.2411E+06  0.000E+00  0.000E+00  0.000E+00  3.63189E+01  5.411E-01  2.000E+01  2.000E+04 -1.087E+00
   1   15   25     3     4    1.2411E+06 -2.1463E+04   1.2626E+06  0.000E+00  0.000E+00  0.000E+00  3.54357E+01  5.468E-01  2.000E+01  2.000E+04 -1.073E+00
   1   15   26     3     5    1.2626E+06 -2.4893E+04   1.2875E+06  0.000E+00  0.000E+00  0.000E+00  3.45529E+01  5.529E-01  2.000E+01  2.000E+04 -1.245E+00
   1   16   27     3     6    1.2875E+06 -3.1942E+04   1.3194E+06  0.000E+00  0.000E+00  0.000E+00  3.36713E+01  5.602E-01  2.000E+01  2.000E+04 -1.597E+00
   1   17   28     3     7    1.3194E+06 -3.8064E+04   1.3575E+06  0.000E+00  0.000E+00  0.000E+00  3.27914E+01  5.692E-01  2.000E+01  2.000E+04 -1.903E+00
   1   18   29     3     8    1.3575E+06 -4.6831E+04   1.4043E+06  0.000E+00  0.000E+00  0.000E+00  3.19133E+01  5.800E-01  2.000E+01  2.000E+04 -2.342E+00
   1   18   30     3     9    1.4043E+06 -4.3420E+04   1.4477E+06  0.000E+00  0.000E+00  0.000E+00  3.10357E+01  5.913E-01  2.000E+01  2.000E+04 -2.171E+00



1
              HEAD IN LAYER   1 AT END OF TIME STEP   1 IN STRESS PERIOD    1
  ---------------------------------------------------------------------------

          1      2      3      4      5      6      7      8      9     10
         11     12     13     14     15     16     17     18     19     20
         21     22     23     24     25     26     27     28     29     30
 .........................................................................
   1  ****** ****** ****** ****** ****** ****** ****** ****** ****** ******
      ****** ****** ****** ****** ****** ****** ****** ****** ****** ******
      ****** ****** ****** ****** ****** ****** ****** ****** ****** ******
   2  ****** ****** ****** ****** ****** ****** ****** ****** ****** ******
      ****** ****** ****** ****** ****** ****** ****** ****** ****** ******
      ****** ****** ****** ****** ****** ****** ****** ****** ****** ******
   3  ****** ****** ****** ****** ****** ****** ****** ****** ****** ******
      ****** ****** ****** ****** ****** ****** ****** ****** ****** ******
      ****** ****** ****** ****** ****** ****** ****** ****** ****** ******
   4  ****** ****** ****** ****** ****** ****** ****** ****** ****** ******
      ****** ****** ****** ****** ****** ****** ****** ****** ****** ******
      ****** ****** ****** ****** ****** ****** ****** ****** ****** ******
   5  ****** ****** ****** ****** ****** ****** ****** ****** ****** ******
      ****** ****** ****** ****** ****** ****** ****** ****** ****** ******
      ****** ****** ****** ****** ****** ****** ****** ****** ****** ******
   6  ****** ****** ****** ****** ****** ****** ****** ****** ****** ******
      ****** ****** ****** ****** ****** ****** ****** ****** ****** ******
      ****** ****** ****** ****** ****** ****** ****** ****** ****** ******
   7  ****** ****** ****** ****** ****** ****** ****** ****** ****** ******
      ****** ****** ****** ****** ****** ****** ****** ****** ****** ******
      ****** ****** ****** ****** ****** ****** ****** ****** ****** ******
   8  ****** ****** ****** ****** ****** ****** ****** ****** ****** ******
      ****** ****** ****** ****** ****** ****** ****** ****** ****** ******
      ****** ****** ****** ****** ****** ****** ****** ****** ****** ******
   9  ****** ****** ****** ****** ****** ****** ****** ****** ****** ******
      ****** ****** ****** ****** ****** ****** ****** ****** ****** ******
      ****** ****** ****** ****** ****** ****** ****** ****** ****** ******
  10  ****** ****** ****** ****** ****** ****** ****** ****** ****** ******
      ****** ****** ****** ****** ****** ****** ****** ****** ****** ******
      ****** ****** ****** ****** ****** ****** ****** ****** ****** ******
  11  ****** ****** ****** ****** ****** ****** ****** ****** ****** ******
      ****** ****** ****** ****** ****** ****** ****** ****** ****** ******
      ****** ****** ****** ****** ****** ****** ****** ****** ****** ******
  12  ****** ****** ****** ****** ****** ****** ****** ****** ****** ******
      ****** ****** ****** ****** ****** ****** ****** ****** ****** ******
      ****** ****** ****** ****** ****** ****** ****** ****** ****** ******
  13  ****** ****** ****** ****** ****** ****** ****** ****** ****** ******
      ****** ****** ****** ****** ****** ****** ****** ****** ****** ******
      ****** ****** ****** ****** ****** ****** ****** ****** ****** ******
  14  ****** ****** ****** ****** ****** ****** ****** ****** ****** ******
      ****** ****** ****** ****** ****** ****** ****** ****** ****** ******
      ****** ****** ****** ****** ****** ****** ****** ****** ****** ******
  15  ****** ****** ****** ****** ****** ****** ****** ****** ****** ******
      ****** ****** ****** ****** ****** ****** ****** ****** ****** ******
      ****** ****** ****** ****** ****** ****** ****** ****** ****** ******
  16  ****** ****** ****** ****** ****** ****** ****** ****** ****** ******
      ****** ****** ****** ****** ****** ****** ****** ****** ****** ******
      ****** ****** ****** ****** ****** ****** ****** ****** ****** ******
  17  ****** ****** ****** ****** ****** ****** ****** ****** ****** ******
      ****** ****** ****** ****** ****** ****** ****** ****** ****** ******
      ****** ****** ****** ****** ****** ****** ****** ****** ****** ******
  18  ****** ****** ****** ****** ****** ****** ****** ****** ****** ******
      ****** ****** ****** ****** ****** ****** ****** ****** ****** ******
      ****** ****** ****** ****** ****** ****** ****** ****** ****** ******
  19  ****** ****** ****** ****** ****** ****** ****** ****** ****** ******
      ****** ****** ****** ****** ****** ****** ****** ****** ****** ******
      ****** ****** ****** ****** ****** ****** ****** ****** ****** ******
  20  ****** ****** ****** ****** ****** ****** ****** ****** ****** ******
      ****** ****** ****** ****** ****** ****** ****** ****** ****** ******
      ****** ****** ****** ****** ****** ****** ****** ****** ****** ******
  21  ****** ****** ****** ****** ****** ****** ****** ****** ****** ******
      ****** ****** ****** ****** ****** ****** ****** ****** ****** ******
      ****** ****** ****** ****** ****** ****** ****** ****** ****** ******
  22  ****** ****** ****** ****** ****** ****** ****** ****** ****** ******
      ****** ****** ****** ****** ****** ****** ****** ****** ****** ******
      ****** ****** ****** ****** ****** ****** ****** ****** ****** ******
  23  ****** ****** ****** ****** ****** ****** ****** ****** ****** ******
      ****** ****** ****** ****** ****** ****** ****** ****** ****** ******
      ****** ****** ****** ****** ****** ****** ****** ****** ****** ******
  24  ****** ****** ****** ****** ****** ****** ****** ****** ****** ******
      ****** ****** ****** ****** ****** ****** ****** ****** ****** ******
      ****** ****** ****** ****** ****** ****** ****** ****** ****** ******
  25  ****** ****** ****** ****** ****** ****** ****** ****** ****** ******
      ****** ****** ****** ****** ****** ****** ****** ****** ****** ******
      ****** ****** ****** ****** ****** ****** ****** ****** ****** ******

 HEAD WILL BE SAVED ON UNIT   51 AT END OF TIME STEP    1, STRESS PERIOD    1
1
  VOLUMETRIC BUDGET FOR ENTIRE MODEL AT END OF TIME STEP    1, STRESS PERIOD   1
  ------------------------------------------------------------------------------

     CUMULATIVE VOLUMES      L**3       RATES FOR THIS TIME STEP      L**3/T
     ------------------                 ------------------------

           IN:                                      IN:
           ---                                      ---
             STORAGE =    19044107.2116               STORAGE =      207001.1653
       CONSTANT HEAD =   106898687.5478         CONSTANT HEAD =     1161942.2560
               WELLS =           0.0000                 WELLS =           0.0000
            RECHARGE =     1269600.0000              RECHARGE =       13800.0000
      STREAM LEAKAGE =           0.0000        STREAM LEAKAGE =           0.0000

            TOTAL IN =   127212394.7593              TOTAL IN =     1382743.4213

          OUT:                                     OUT:
          ----                                     ----
             STORAGE =           0.0000               STORAGE =           0.0000
       CONSTANT HEAD =           0.0000         CONSTANT HEAD =           0.0000
               WELLS =     7820046.0000                 WELLS =       85000.5000
            RECHARGE =           0.0000              RECHARGE =           0.0000
      STREAM LEAKAGE =   119392350.4670        STREAM LEAKAGE =     1297742.9399

           TOTAL OUT =   127212396.4670             TOTAL OUT =     1382743.4399

            IN - OUT =          -1.7077              IN - OUT =      -1.8562E-02

 PERCENT DISCREPANCY =          -0.00     PERCENT DISCREPANCY =          -0.00






         TIME SUMMARY AT END OF TIME STEP    1 IN STRESS PERIOD    1
                    SECONDS     MINUTES      HOURS       DAYS        YEARS
                    -----------------------------------------------------------
   TIME STEP LENGTH 7.94880E+06 1.32480E+05  2208.0      92.000     0.25188    
 STRESS PERIOD TIME 7.94880E+06 1.32480E+05  2208.0      92.000     0.25188    
         TOTAL TIME 7.94880E+06 1.32480E+05  2208.0      92.000     0.25188    
1
1
                            STRESS PERIOD NO.    2, LENGTH =   91.00000    
                            -----------------------------------------------

                              NUMBER OF TIME STEPS =     1

                               MULTIPLIER FOR DELT =     1.500

                            INITIAL TIME STEP SIZE =   91.00000    

 WELL NO.  LAYER   ROW   COL   STRESS RATE         
 --------------------------------------------------
      1      1     22     29     -0.3000E+05
      2      1     24     24     -0.5000E+05
      3      1     24     27      -5001.    

      3 WELLS

                 RECHARGE =  2.000000E-03

 REUSING STREAM SEGMENT DATA FROM LAST STRESS PERIOD
 
 SOLVING FOR HEAD 


     6 CALLS TO PCG ROUTINE FOR TIME STEP   1 IN STRESS PERIOD    2
    24 TOTAL ITERATIONS

 OUTPUT CONTROL FOR STRESS PERIOD    2   TIME STEP    1
    SAVE BUDGET
    SAVE HEAD FOR ALL LAYERS
    PRINT HEAD FOR ALL LAYERS
 UBDSV2 SAVING "STREAMFLOW OUT  " ON UNIT  50 AT TIME STEP  1, STRESS PERIOD   2



 STREAM LISTING     PERIOD      2   STEP        1

 LAYER ROW COL. STREAM  RCH.  FLOW INTO     FLOW TO   FLOW OUT OF   OVRLND.     DIRECT     STREAM       STREAM     STREAM     STREAM   STREAMBED  STREAMBED
                SEG.NO.  NO.  STRM. RCH.    AQUIFER    STRM. RCH.    RUNOFF     PRECIP       ET          HEAD       DEPTH      WIDTH   CONDCTNC.   GRADIENT

   1   13    1     1     1    1.0000E+05 -2.8560E+04   1.2856E+05  0.000E+00  0.000E+00  0.000E+00  4.84181E+01  1.567E-01  2.000E+01  2.000E+04 -1.428E+00
   1   13    2     1     2    1.2856E+05 -3.8459E+04   1.6702E+05  0.000E+00  0.000E+00  0.000E+00  4.79669E+01  1.829E-01  2.000E+01  2.000E+04 -1.923E+00
   1   14    3     1     3    1.6702E+05 -3.3896E+04   2.0092E+05  0.000E+00  0.000E+00  0.000E+00  4.75153E+01  2.085E-01  2.000E+01  2.000E+04 -1.695E+00
   1   15    4     1     4    2.0092E+05 -3.3086E+04   2.3400E+05  0.000E+00  0.000E+00  0.000E+00  4.70601E+01  2.305E-01  2.000E+01  2.000E+04 -1.654E+00
   1   16    5     1     5    2.3400E+05 -3.4510E+04   2.6851E+05  0.000E+00  0.000E+00  0.000E+00  4.66037E+01  2.514E-01  2.000E+01  2.000E+04 -1.726E+00
   1   16    6     1     6    2.6851E+05 -3.0162E+04   2.9867E+05  0.000E+00  0.000E+00  0.000E+00  4.61454E+01  2.704E-01  2.000E+01  2.000E+04 -1.508E+00
   1   16    7     1     7    2.9867E+05 -2.9990E+04   3.2866E+05  0.000E+00  0.000E+00  0.000E+00  4.56849E+01  2.872E-01  2.000E+01  2.000E+04 -1.499E+00
   1   16    8     1     8    3.2866E+05 -3.0185E+04   3.5885E+05  0.000E+00  0.000E+00  0.000E+00  4.52239E+01  3.034E-01  2.000E+01  2.000E+04 -1.509E+00
   1   16    9     1     9    3.5885E+05 -3.0274E+04   3.8912E+05  0.000E+00  0.000E+00  0.000E+00  4.47624E+01  3.192E-01  2.000E+01  2.000E+04 -1.514E+00
   1   16   10     1    10    3.8912E+05 -3.0308E+04   4.1943E+05  0.000E+00  0.000E+00  0.000E+00  4.43004E+01  3.345E-01  2.000E+01  2.000E+04 -1.515E+00
   1   16   11     1    11    4.1943E+05 -3.0922E+04   4.5035E+05  0.000E+00  0.000E+00  0.000E+00  4.38381E+01  3.494E-01  2.000E+01  2.000E+04 -1.546E+00
   1   16   12     1    12    4.5035E+05 -3.6527E+04   4.8688E+05  0.000E+00  0.000E+00  0.000E+00  4.33768E+01  3.654E-01  2.000E+01  2.000E+04 -1.826E+00
   1   15   13     1    13    4.8688E+05 -3.5362E+04   5.2224E+05  0.000E+00  0.000E+00  0.000E+00  4.29161E+01  3.820E-01  2.000E+01  2.000E+04 -1.768E+00
   1   14   14     1    14    5.2224E+05 -3.5991E+04   5.5823E+05  0.000E+00  0.000E+00  0.000E+00  4.24548E+01  3.980E-01  2.000E+01  2.000E+04 -1.800E+00
   1   13   15     1    15    5.5823E+05 -3.8229E+04   5.9646E+05  0.000E+00  0.000E+00  0.000E+00  4.19937E+01  4.142E-01  2.000E+01  2.000E+04 -1.911E+00
   1   12   16     1    16    5.9646E+05 -4.4287E+04   6.4075E+05  0.000E+00  0.000E+00  0.000E+00  4.15340E+01  4.317E-01  2.000E+01  2.000E+04 -2.214E+00
   1   12   17     1    17    6.4075E+05 -3.4633E+04   6.7538E+05  0.000E+00  0.000E+00  0.000E+00  4.10730E+01  4.480E-01  2.000E+01  2.000E+04 -1.732E+00
   1   12   18     1    18    6.7538E+05 -3.2969E+04   7.0835E+05  0.000E+00  0.000E+00  0.000E+00  4.06094E+01  4.617E-01  2.000E+01  2.000E+04 -1.648E+00
   1   12   19     1    19    7.0835E+05 -3.7102E+04   7.4545E+05  0.000E+00  0.000E+00  0.000E+00  4.01460E+01  4.756E-01  2.000E+01  2.000E+04 -1.855E+00
   1   13   20     1    20    7.4545E+05 -2.7247E+04   7.7270E+05  0.000E+00  0.000E+00  0.000E+00  3.96813E+01  4.881E-01  2.000E+01  2.000E+04 -1.362E+00
   1   14   21     1    21    7.7270E+05 -1.9911E+04   7.9261E+05  0.000E+00  0.000E+00  0.000E+00  3.92130E+01  4.971E-01  2.000E+01  2.000E+04 -9.956E-01
   1   14   22     1    22    7.9261E+05 -1.7827E+03   7.9439E+05  0.000E+00  0.000E+00  0.000E+00  3.87399E+01  5.012E-01  2.000E+01  2.000E+04 -8.913E-02
   1    9   30     2     1    5.0000E+04 -2.6979E+04   7.6979E+04  0.000E+00  0.000E+00  0.000E+00  4.02587E+01  1.337E-01  2.000E+01  2.000E+04 -1.349E+00
   1    9   29     2     2    7.6979E+04 -2.9450E+04   1.0643E+05  0.000E+00  0.000E+00  0.000E+00  4.00417E+01  1.667E-01  2.000E+01  2.000E+04 -1.473E+00
   1    9   28     2     3    1.0643E+05 -3.3765E+04   1.4019E+05  0.000E+00  0.000E+00  0.000E+00  3.98241E+01  1.991E-01  2.000E+01  2.000E+04 -1.688E+00
   1    9   27     2     4    1.4019E+05 -4.8020E+04   1.8821E+05  0.000E+00  0.000E+00  0.000E+00  3.96115E+01  2.365E-01  2.000E+01  2.000E+04 -2.401E+00
   1   10   26     2     5    1.8821E+05 -3.4006E+04   2.2222E+05  0.000E+00  0.000E+00  0.000E+00  3.93953E+01  2.703E-01  2.000E+01  2.000E+04 -1.700E+00
   1   11   25     2     6    2.2222E+05 -2.5633E+04   2.4785E+05  0.000E+00  0.000E+00  0.000E+00  3.91683E+01  2.933E-01  2.000E+01  2.000E+04 -1.282E+00
   1   12   24     2     7    2.4785E+05 -1.8995E+04   2.6685E+05  0.000E+00  0.000E+00  0.000E+00  3.89347E+01  3.097E-01  2.000E+01  2.000E+04 -9.497E-01
   1   13   23     2     8    2.6685E+05 -1.3522E+04   2.8037E+05  0.000E+00  0.000E+00  0.000E+00  3.86963E+01  3.213E-01  2.000E+01  2.000E+04 -6.761E-01
   1   14   22     2     9    2.8037E+05 -7.5082E+03   2.8788E+05  0.000E+00  0.000E+00  0.000E+00  3.84536E+01  3.286E-01  2.000E+01  2.000E+04 -3.754E-01
   1   14   22     3     1    1.0823E+06 -1.5405E+04   1.0977E+06  0.000E+00  0.000E+00  0.000E+00  3.80588E+01  5.032E-01  2.000E+01  2.000E+04 -7.703E-01
   1   15   23     3     2    1.0977E+06 -2.3446E+04   1.1211E+06  0.000E+00  0.000E+00  0.000E+00  3.71752E+01  5.086E-01  2.000E+01  2.000E+04 -1.172E+00
   1   15   24     3     3    1.1211E+06 -1.9454E+04   1.1406E+06  0.000E+00  0.000E+00  0.000E+00  3.62922E+01  5.144E-01  2.000E+01  2.000E+04 -9.727E-01
   1   15   25     3     4    1.1406E+06 -1.9050E+04   1.1596E+06  0.000E+00  0.000E+00  0.000E+00  3.54086E+01  5.197E-01  2.000E+01  2.000E+04 -9.525E-01
   1   15   26     3     5    1.1596E+06 -2.1874E+04   1.1815E+06  0.000E+00  0.000E+00  0.000E+00  3.45252E+01  5.252E-01  2.000E+01  2.000E+04 -1.094E+00
   1   16   27     3     6    1.1815E+06 -2.8445E+04   1.2099E+06  0.000E+00  0.000E+00  0.000E+00  3.36431E+01  5.320E-01  2.000E+01  2.000E+04 -1.422E+00
   1   17   28     3     7    1.2099E+06 -3.4603E+04   1.2445E+06  0.000E+00  0.000E+00  0.000E+00  3.27626E+01  5.403E-01  2.000E+01  2.000E+04 -1.730E+00
   1   18   29     3     8    1.2445E+06 -4.3830E+04   1.2884E+06  0.000E+00  0.000E+00  0.000E+00  3.18840E+01  5.506E-01  2.000E+01  2.000E+04 -2.192E+00
   1   18   30     3     9    1.2884E+06 -4.0779E+04   1.3292E+06  0.000E+00  0.000E+00  0.000E+00  3.10060E+01  5.616E-01  2.000E+01  2.000E+04 -2.039E+00



1
              HEAD IN LAYER   1 AT END OF TIME STEP   1 IN STRESS PERIOD    2
  ---------------------------------------------------------------------------

          1      2      3      4      5      6      7      8      9     10
         11     12     13     14     15     16     17     18     19     20
         21     22     23     24     25     26     27     28     29     30
 .........................................................................
   1  ****** ****** ****** ****** ****** ****** ****** ****** ****** ******
      ****** ****** ****** ****** ****** ****** ****** ****** ****** ******
      ****** ****** ****** ****** ****** ****** ****** ****** ****** ******
   2  ****** ****** ****** ****** ****** ****** ****** ****** ****** ******
      ****** ****** ****** ****** ****** ****** ****** ****** ****** ******
      ****** ****** ****** ****** ****** ****** ****** ****** ****** ******
   3  ****** ****** ****** ****** ****** ****** ****** ****** ****** ******
      ****** ****** ****** ****** ****** ****** ****** ****** ****** ******
      ****** ****** ****** ****** ****** ****** ****** ****** ****** ******
   4  ****** ****** ****** ****** ****** ****** ****** ****** ****** ******
      ****** ****** ****** ****** ****** ****** ****** ****** ****** ******
      ****** ****** ****** ****** ****** ****** ****** ****** ****** ******
   5  ****** ****** ****** ****** ****** ****** ****** ****** ****** ******
      ****** ****** ****** ****** ****** ****** ****** ****** ****** ******
      ****** ****** ****** ****** ****** ****** ****** ****** ****** ******
   6  ****** ****** ****** ****** ****** ****** ****** ****** ****** ******
      ****** ****** ****** ****** ****** ****** ****** ****** ****** ******
      ****** ****** ****** ****** ****** ****** ****** ****** ****** ******
   7  ****** ****** ****** ****** ****** ****** ****** ****** ****** ******
      ****** ****** ****** ****** ****** ****** ****** ****** ****** ******
      ****** ****** ****** ****** ****** ****** ****** ****** ****** ******
   8  ****** ****** ****** ****** ****** ****** ****** ****** ****** ******
      ****** ****** ****** ****** ****** ****** ****** ****** ****** ******
      ****** ****** ****** ****** ****** ****** ****** ****** ****** ******
   9  ****** ****** ****** ****** ****** ****** ****** ****** ****** ******
      ****** ****** ****** ****** ****** ****** ****** ****** ****** ******
      ****** ****** ****** ****** ****** ****** ****** ****** ****** ******
  10  ****** ****** ****** ****** ****** ****** ****** ****** ****** ******
      ****** ****** ****** ****** ****** ****** ****** ****** ****** ******
      ****** ****** ****** ****** ****** ****** ****** ****** ****** ******
  11  ****** ****** ****** ****** ****** ****** ****** ****** ****** ******
      ****** ****** ****** ****** ****** ****** ****** ****** ****** ******
      ****** ****** ****** ****** ****** ****** ****** ****** ****** ******
  12  ****** ****** ****** ****** ****** ****** ****** ****** ****** ******
      ****** ****** ****** ****** ****** ****** ****** ****** ****** ******
      ****** ****** ****** ****** ****** ****** ****** ****** ****** ******
  13  ****** ****** ****** ****** ****** ****** ****** ****** ****** ******
      ****** ****** ****** ****** ****** ****** ****** ****** ****** ******
      ****** ****** ****** ****** ****** ****** ****** ****** ****** ******
  14  ****** ****** ****** ****** ****** ****** ****** ****** ****** ******
      ****** ****** ****** ****** ****** ****** ****** ****** ****** ******
      ****** ****** ****** ****** ****** ****** ****** ****** ****** ******
  15  ****** ****** ****** ****** ****** ****** ****** ****** ****** ******
      ****** ****** ****** ****** ****** ****** ****** ****** ****** ******
      ****** ****** ****** ****** ****** ****** ****** ****** ****** ******
  16  ****** ****** ****** ****** ****** ****** ****** ****** ****** ******
      ****** ****** ****** ****** ****** ****** ****** ****** ****** ******
      ****** ****** ****** ****** ****** ****** ****** ****** ****** ******
  17  ****** ****** ****** ****** ****** ****** ****** ****** ****** ******
      ****** ****** ****** ****** ****** ****** ****** ****** ****** ******
      ****** ****** ****** ****** ****** ****** ****** ****** ****** ******
  18  ****** ****** ****** ****** ****** ****** ****** ****** ****** ******
      ****** ****** ****** ****** ****** ****** ****** ****** ****** ******
      ****** ****** ****** ****** ****** ****** ****** ****** ****** ******
  19  ****** ****** ****** ****** ****** ****** ****** ****** ****** ******
      ****** ****** ****** ****** ****** ****** ****** ****** ****** ******
      ****** ****** ****** ****** ****** ****** ****** ****** ****** ******
  20  ****** ****** ****** ****** ****** ****** ****** ****** ****** ******
      ****** ****** ****** ****** ****** ****** ****** ****** ****** ******
      ****** ****** ****** ****** ****** ****** ****** ****** ****** ******
  21  ****** ****** ****** ****** ****** ****** ****** ****** ****** ******
      ****** ****** ****** ****** ****** ****** ****** ****** ****** ******
      ****** ****** ****** ****** ****** ****** ****** ****** ****** ******
  22  ****** ****** ****** ****** ****** ****** ****** ****** ****** ******
      ****** ****** ****** ****** ****** ****** ****** ****** ****** ******
      ****** ****** ****** ****** ****** ****** ****** ****** ****** ******
  23  ****** ****** ****** ****** ****** ****** ****** ****** ****** ******
      ****** ****** ****** ****** ****** ****** ****** ****** ****** ******
      ****** ****** ****** ****** ****** ****** ****** ****** ****** ******
  24  ****** ****** ****** ****** ****** ****** ****** ****** ****** ******
      ****** ****** ****** ****** ****** ****** ****** ****** ****** ******
      ****** ****** ****** ****** ****** ****** ****** ****** ****** ******
  25  ****** ****** ****** ****** ****** ****** ****** ****** ****** ******
      ****** ****** ****** ****** ****** ****** ****** ****** ****** ******
      ****** ****** ****** ****** ****** ****** ****** ****** ****** ******

 HEAD WILL BE SAVED ON UNIT   51 AT END OF TIME STEP    1, STRESS PERIOD    2
1
  VOLUMETRIC BUDGET FOR ENTIRE MODEL AT END OF TIME STEP    1, STRESS PERIOD   2
  ------------------------------------------------------------------------------

     CUMULATIVE VOLUMES      L**3       RATES FOR THIS TIME STEP      L**3/T
     ------------------                 ------------------------

           IN:                                      IN:
           ---                                      ---
             STORAGE =    19714666.0123               STORAGE =        7368.7780
       CONSTANT HEAD =   216243442.2353         CONSTANT HEAD =     1201590.7109
               WELLS =           0.0000                 WELLS =           0.0000
            RECHARGE =     6292800.0000              RECHARGE =       55200.0000
      STREAM LEAKAGE =           0.0000        STREAM LEAKAGE =           0.0000

            TOTAL IN =   242250908.2476              TOTAL IN =     1264159.4889

          OUT:                                     OUT:
          ----                                     ----
             STORAGE =           0.0000               STORAGE =           0.0000
       CONSTANT HEAD =           0.0000         CONSTANT HEAD =           0.0000
               WELLS =    15555091.5000                 WELLS =       85000.5000
            RECHARGE =           0.0000              RECHARGE =           0.0000
      STREAM LEAKAGE =   226695823.9799        STREAM LEAKAGE =     1179159.0496

           TOTAL OUT =   242250915.4799             TOTAL OUT =     1264159.5496

            IN - OUT =          -7.2323              IN - OUT =      -6.0710E-02

 PERCENT DISCREPANCY =          -0.00     PERCENT DISCREPANCY =          -0.00






         TIME SUMMARY AT END OF TIME STEP    1 IN STRESS PERIOD    2
                    SECONDS     MINUTES      HOURS       DAYS        YEARS
                    -----------------------------------------------------------
   TIME STEP LENGTH 7.86240E+06 1.31040E+05  2184.0      91.000     0.24914    
 STRESS PERIOD TIME 7.86240E+06 1.31040E+05  2184.0      91.000     0.24914    
         TOTAL TIME 1.58112E+07 2.63520E+05  4392.0      183.00     0.50103    
1
1
                            STRESS PERIOD NO.    3, LENGTH =   91.00000    
                            -----------------------------------------------

                              NUMBER OF TIME STEPS =     1

                               MULTIPLIER FOR DELT =     1.500

                            INITIAL TIME STEP SIZE =   91.00000    

 WELL NO.  LAYER   ROW   COL   STRESS RATE         
 --------------------------------------------------
      1      1     22     29     -0.3000E+05
      2      1     24     24     -0.5000E+05
      3      1     24     27      -5001.    

      3 WELLS

                 RECHARGE =   0.00000    

 REUSING STREAM SEGMENT DATA FROM LAST STRESS PERIOD
 
 SOLVING FOR HEAD 


     6 CALLS TO PCG ROUTINE FOR TIME STEP   1 IN STRESS PERIOD    3
    23 TOTAL ITERATIONS

 OUTPUT CONTROL FOR STRESS PERIOD    3   TIME STEP    1
    SAVE BUDGET
    SAVE HEAD FOR ALL LAYERS
    PRINT HEAD FOR ALL LAYERS
 UBDSV2 SAVING "STREAMFLOW OUT  " ON UNIT  50 AT TIME STEP  1, STRESS PERIOD   3



 STREAM LISTING     PERIOD      3   STEP        1

 LAYER ROW COL. STREAM  RCH.  FLOW INTO     FLOW TO   FLOW OUT OF   OVRLND.     DIRECT     STREAM       STREAM     STREAM     STREAM   STREAMBED  STREAMBED
                SEG.NO.  NO.  STRM. RCH.    AQUIFER    STRM. RCH.    RUNOFF     PRECIP       ET          HEAD       DEPTH      WIDTH   CONDCTNC.   GRADIENT

   1   13    1     1     1    1.0000E+05 -2.7529E+04   1.2753E+05  0.000E+00  0.000E+00  0.000E+00  4.84177E+01  1.563E-01  2.000E+01  2.000E+04 -1.376E+00
   1   13    2     1     2    1.2753E+05 -3.7219E+04   1.6475E+05  0.000E+00  0.000E+00  0.000E+00  4.79657E+01  1.816E-01  2.000E+01  2.000E+04 -1.861E+00
   1   14    3     1     3    1.6475E+05 -3.2697E+04   1.9745E+05  0.000E+00  0.000E+00  0.000E+00  4.75134E+01  2.066E-01  2.000E+01  2.000E+04 -1.635E+00
   1   15    4     1     4    1.9745E+05 -3.1944E+04   2.2939E+05  0.000E+00  0.000E+00  0.000E+00  4.70575E+01  2.280E-01  2.000E+01  2.000E+04 -1.597E+00
   1   16    5     1     5    2.2939E+05 -3.3492E+04   2.6288E+05  0.000E+00  0.000E+00  0.000E+00  4.66006E+01  2.483E-01  2.000E+01  2.000E+04 -1.675E+00
   1   16    6     1     6    2.6288E+05 -2.9273E+04   2.9215E+05  0.000E+00  0.000E+00  0.000E+00  4.61419E+01  2.669E-01  2.000E+01  2.000E+04 -1.464E+00
   1   16    7     1     7    2.9215E+05 -2.9107E+04   3.2126E+05  0.000E+00  0.000E+00  0.000E+00  4.56811E+01  2.834E-01  2.000E+01  2.000E+04 -1.455E+00
   1   16    8     1     8    3.2126E+05 -2.9298E+04   3.5056E+05  0.000E+00  0.000E+00  0.000E+00  4.52197E+01  2.993E-01  2.000E+01  2.000E+04 -1.465E+00
   1   16    9     1     9    3.5056E+05 -2.9388E+04   3.7995E+05  0.000E+00  0.000E+00  0.000E+00  4.47579E+01  3.147E-01  2.000E+01  2.000E+04 -1.469E+00
   1   16   10     1    10    3.7995E+05 -2.9424E+04   4.0937E+05  0.000E+00  0.000E+00  0.000E+00  4.42956E+01  3.297E-01  2.000E+01  2.000E+04 -1.471E+00
   1   16   11     1    11    4.0937E+05 -3.0028E+04   4.3940E+05  0.000E+00  0.000E+00  0.000E+00  4.38330E+01  3.443E-01  2.000E+01  2.000E+04 -1.501E+00
   1   16   12     1    12    4.3940E+05 -3.5485E+04   4.7488E+05  0.000E+00  0.000E+00  0.000E+00  4.33714E+01  3.600E-01  2.000E+01  2.000E+04 -1.774E+00
   1   15   13     1    13    4.7488E+05 -3.4200E+04   5.0908E+05  0.000E+00  0.000E+00  0.000E+00  4.29104E+01  3.763E-01  2.000E+01  2.000E+04 -1.710E+00
   1   14   14     1    14    5.0908E+05 -3.4785E+04   5.4387E+05  0.000E+00  0.000E+00  0.000E+00  4.24487E+01  3.919E-01  2.000E+01  2.000E+04 -1.739E+00
   1   13   15     1    15    5.4387E+05 -3.7029E+04   5.8090E+05  0.000E+00  0.000E+00  0.000E+00  4.19872E+01  4.077E-01  2.000E+01  2.000E+04 -1.851E+00
   1   12   16     1    16    5.8090E+05 -4.3125E+04   6.2402E+05  0.000E+00  0.000E+00  0.000E+00  4.15272E+01  4.249E-01  2.000E+01  2.000E+04 -2.156E+00
   1   12   17     1    17    6.2402E+05 -3.3706E+04   6.5773E+05  0.000E+00  0.000E+00  0.000E+00  4.10659E+01  4.409E-01  2.000E+01  2.000E+04 -1.685E+00
   1   12   18     1    18    6.5773E+05 -3.2090E+04   6.8982E+05  0.000E+00  0.000E+00  0.000E+00  4.06021E+01  4.544E-01  2.000E+01  2.000E+04 -1.604E+00
   1   12   19     1    19    6.8982E+05 -3.6145E+04   7.2596E+05  0.000E+00  0.000E+00  0.000E+00  4.01385E+01  4.681E-01  2.000E+01  2.000E+04 -1.807E+00
   1   13   20     1    20    7.2596E+05 -2.6361E+04   7.5232E+05  0.000E+00  0.000E+00  0.000E+00  3.96735E+01  4.804E-01  2.000E+01  2.000E+04 -1.318E+00
   1   14   21     1    21    7.5232E+05 -1.9149E+04   7.7147E+05  0.000E+00  0.000E+00  0.000E+00  3.92051E+01  4.892E-01  2.000E+01  2.000E+04 -9.575E-01
   1   14   22     1    22    7.7147E+05 -1.5202E+03   7.7299E+05  0.000E+00  0.000E+00  0.000E+00  3.87318E+01  4.931E-01  2.000E+01  2.000E+04 -7.601E-02
   1    9   30     2     1    5.0000E+04 -2.6311E+04   7.6311E+04  0.000E+00  0.000E+00  0.000E+00  4.02583E+01  1.333E-01  2.000E+01  2.000E+04 -1.316E+00
   1    9   29     2     2    7.6311E+04 -2.8782E+04   1.0509E+05  0.000E+00  0.000E+00  0.000E+00  4.00406E+01  1.656E-01  2.000E+01  2.000E+04 -1.439E+00
   1    9   28     2     3    1.0509E+05 -3.3073E+04   1.3817E+05  0.000E+00  0.000E+00  0.000E+00  3.98225E+01  1.975E-01  2.000E+01  2.000E+04 -1.654E+00
   1    9   27     2     4    1.3817E+05 -4.7167E+04   1.8533E+05  0.000E+00  0.000E+00  0.000E+00  3.96094E+01  2.344E-01  2.000E+01  2.000E+04 -2.358E+00
   1   10   26     2     5    1.8533E+05 -3.3117E+04   2.1845E+05  0.000E+00  0.000E+00  0.000E+00  3.93927E+01  2.677E-01  2.000E+01  2.000E+04 -1.656E+00
   1   11   25     2     6    2.1845E+05 -2.4775E+04   2.4322E+05  0.000E+00  0.000E+00  0.000E+00  3.91651E+01  2.901E-01  2.000E+01  2.000E+04 -1.239E+00
   1   12   24     2     7    2.4322E+05 -1.8229E+04   2.6145E+05  0.000E+00  0.000E+00  0.000E+00  3.89310E+01  3.060E-01  2.000E+01  2.000E+04 -9.115E-01
   1   13   23     2     8    2.6145E+05 -1.2902E+04   2.7436E+05  0.000E+00  0.000E+00  0.000E+00  3.86922E+01  3.172E-01  2.000E+01  2.000E+04 -6.451E-01
   1   14   22     2     9    2.7436E+05 -7.1699E+03   2.8153E+05  0.000E+00  0.000E+00  0.000E+00  3.84493E+01  3.243E-01  2.000E+01  2.000E+04 -3.585E-01
   1   14   22     3     1    1.0545E+06 -1.5136E+04   1.0697E+06  0.000E+00  0.000E+00  0.000E+00  3.80510E+01  4.954E-01  2.000E+01  2.000E+04 -7.568E-01
   1   15   23     3     2    1.0697E+06 -2.2742E+04   1.0924E+06  0.000E+00  0.000E+00  0.000E+00  3.71674E+01  5.007E-01  2.000E+01  2.000E+04 -1.137E+00
   1   15   24     3     3    1.0924E+06 -1.8878E+04   1.1113E+06  0.000E+00  0.000E+00  0.000E+00  3.62843E+01  5.065E-01  2.000E+01  2.000E+04 -9.439E-01
   1   15   25     3     4    1.1113E+06 -1.8480E+04   1.1298E+06  0.000E+00  0.000E+00  0.000E+00  3.54005E+01  5.116E-01  2.000E+01  2.000E+04 -9.240E-01
   1   15   26     3     5    1.1298E+06 -2.1208E+04   1.1510E+06  0.000E+00  0.000E+00  0.000E+00  3.45170E+01  5.170E-01  2.000E+01  2.000E+04 -1.060E+00
   1   16   27     3     6    1.1510E+06 -2.7637E+04   1.1786E+06  0.000E+00  0.000E+00  0.000E+00  3.36348E+01  5.237E-01  2.000E+01  2.000E+04 -1.382E+00
   1   17   28     3     7    1.1786E+06 -3.3776E+04   1.2124E+06  0.000E+00  0.000E+00  0.000E+00  3.27541E+01  5.319E-01  2.000E+01  2.000E+04 -1.689E+00
   1   18   29     3     8    1.2124E+06 -4.3058E+04   1.2554E+06  0.000E+00  0.000E+00  0.000E+00  3.18754E+01  5.421E-01  2.000E+01  2.000E+04 -2.153E+00
   1   18   30     3     9    1.2554E+06 -4.0137E+04   1.2956E+06  0.000E+00  0.000E+00  0.000E+00  3.09974E+01  5.530E-01  2.000E+01  2.000E+04 -2.007E+00



1
              HEAD IN LAYER   1 AT END OF TIME STEP   1 IN STRESS PERIOD    3
  ---------------------------------------------------------------------------

          1      2      3      4      5      6      7      8      9     10
         11     12     13     14     15     16     17     18     19     20
         21     22     23     24     25     26     27     28     29     30
 .........................................................................
   1  ****** ****** ****** ****** ****** ****** ****** ****** ****** ******
      ****** ****** ****** ****** ****** ****** ****** ****** ****** ******
      ****** ****** ****** ****** ****** ****** ****** ****** ****** ******
   2  ****** ****** ****** ****** ****** ****** ****** ****** ****** ******
      ****** ****** ****** ****** ****** ****** ****** ****** ****** ******
      ****** ****** ****** ****** ****** ****** ****** ****** ****** ******
   3  ****** ****** ****** ****** ****** ****** ****** ****** ****** ******
      ****** ****** ****** ****** ****** ****** ****** ****** ****** ******
      ****** ****** ****** ****** ****** ****** ****** ****** ****** ******
   4  ****** ****** ****** ****** ****** ****** ****** ****** ****** ******
      ****** ****** ****** ****** ****** ****** ****** ****** ****** ******
      ****** ****** ****** ****** ****** ****** ****** ****** ****** ******
   5  ****** ****** ****** ****** ****** ****** ****** ****** ****** ******
      ****** ****** ****** ****** ****** ****** ****** ****** ****** ******
      ****** ****** ****** ****** ****** ****** ****** ****** ****** ******
   6  ****** ****** ****** ****** ****** ****** ****** ****** ****** ******
      ****** ****** ****** ****** ****** ****** ****** ****** ****** ******
      ****** ****** ****** ****** ****** ****** ****** ****** ****** ******
   7  ****** ****** ****** ****** ****** ****** ****** ****** ****** ******
      ****** ****** ****** ****** ****** ****** ****** ****** ****** ******
      ****** ****** ****** ****** ****** ****** ****** ****** ****** ******
   8  ****** ****** ****** ****** ****** ****** ****** ****** ****** ******
      ****** ****** ****** ****** ****** ****** ****** ****** ****** ******
      ****** ****** ****** ****** ****** ****** ****** ****** ****** ******
   9  ****** ****** ****** ****** ****** ****** ****** ****** ****** ******
      ****** ****** ****** ****** ****** ****** ****** ****** ****** ******
      ****** ****** ****** ****** ****** ****** ****** ****** ****** ******
  10  ****** ****** ****** ****** ****** ****** ****** ****** ****** ******
      ****** ****** ****** ****** ****** ****** ****** ****** ****** ******
      ****** ****** ****** ****** ****** ****** ****** ****** ****** ******
  11  ****** ****** ****** ****** ****** ****** ****** ****** ****** ******
      ****** ****** ****** ****** ****** ****** ****** ****** ****** ******
      ****** ****** ****** ****** ****** ****** ****** ****** ****** ******
  12  ****** ****** ****** ****** ****** ****** ****** ****** ****** ******
      ****** ****** ****** ****** ****** ****** ****** ****** ****** ******
      ****** ****** ****** ****** ****** ****** ****** ****** ****** ******
  13  ****** ****** ****** ****** ****** ****** ****** ****** ****** ******
      ****** ****** ****** ****** ****** ****** ****** ****** ****** ******
      ****** ****** ****** ****** ****** ****** ****** ****** ****** ******
  14  ****** ****** ****** ****** ****** ****** ****** ****** ****** ******
      ****** ****** ****** ****** ****** ****** ****** ****** ****** ******
      ****** ****** ****** ****** ****** ****** ****** ****** ****** ******
  15  ****** ****** ****** ****** ****** ****** ****** ****** ****** ******
      ****** ****** ****** ****** ****** ****** ****** ****** ****** ******
      ****** ****** ****** ****** ****** ****** ****** ****** ****** ******
  16  ****** ****** ****** ****** ****** ****** ****** ****** ****** ******
      ****** ****** ****** ****** ****** ****** ****** ****** ****** ******
      ****** ****** ****** ****** ****** ****** ****** ****** ****** ******
  17  ****** ****** ****** ****** ****** ****** ****** ****** ****** ******
      ****** ****** ****** ****** ****** ****** ****** ****** ****** ******
      ****** ****** ****** ****** ****** ****** ****** ****** ****** ******
  18  ****** ****** ****** ****** ****** ****** ****** ****** ****** ******
      ****** ****** ****** ****** ****** ****** ****** ****** ****** ******
      ****** ****** ****** ****** ****** ****** ****** ****** ****** ******
  19  ****** ****** ****** ****** ****** ****** ****** ****** ****** ******
      ****** ****** ****** ****** ****** ****** ****** ****** ****** ******
      ****** ****** ****** ****** ****** ****** ****** ****** ****** ******
  20  ****** ****** ****** ****** ****** ****** ****** ****** ****** ******
      ****** ****** ****** ****** ****** ****** ****** ****** ****** ******
      ****** ****** ****** ****** ****** ****** ****** ****** ****** ******
  21  ****** ****** ****** ****** ****** ****** ****** ****** ****** ******
      ****** ****** ****** ****** ****** ****** ****** ****** ****** ******
      ****** ****** ****** ****** ****** ****** ****** ****** ****** ******
  22  ****** ****** ****** ****** ****** ****** ****** ****** ****** ******
      ****** ****** ****** ****** ****** ****** ****** ****** ****** ******
      ****** ****** ****** ****** ****** ****** ****** ****** ****** ******
  23  ****** ****** ****** ****** ****** ****** ****** ****** ****** ******
      ****** ****** ****** ****** ****** ****** ****** ****** ****** ******
      ****** ****** ****** ****** ****** ****** ****** ****** ****** ******
  24  ****** ****** ****** ****** ****** ****** ****** ****** ****** ******
      ****** ****** ****** ****** ****** ****** ****** ****** ****** ******
      ****** ****** ****** ****** ****** ****** ****** ****** ****** ******
  25  ****** ****** ****** ****** ****** ****** ****** ****** ****** ******
      ****** ****** ****** ****** ****** ****** ****** ****** ****** ******
      ****** ****** ****** ****** ****** ****** ****** ****** ****** ******

 HEAD WILL BE SAVED ON UNIT   51 AT END OF TIME STEP    1, STRESS PERIOD    3
1
  VOLUMETRIC BUDGET FOR ENTIRE MODEL AT END OF TIME STEP    1, STRESS PERIOD   3
  ------------------------------------------------------------------------------

     CUMULATIVE VOLUMES      L**3       RATES FOR THIS TIME STEP      L**3/T
     ------------------                 ------------------------

           IN:                                      IN:
           ---                                      ---
             STORAGE =    19991809.2018               STORAGE =        3045.5296
       CONSTANT HEAD =   327948323.9170         CONSTANT HEAD =     1227526.1723
               WELLS =           0.0000                 WELLS =           0.0000
            RECHARGE =     6292800.0000              RECHARGE =           0.0000
      STREAM LEAKAGE =           0.0000        STREAM LEAKAGE =           0.0000

            TOTAL IN =   354232933.1189              TOTAL IN =     1230571.7019

          OUT:                                     OUT:
          ----                                     ----
             STORAGE =           0.0000               STORAGE =           0.0000
       CONSTANT HEAD =           0.0000         CONSTANT HEAD =           0.0000
               WELLS =    23290137.0000                 WELLS =       85000.5000
            RECHARGE =           0.0000              RECHARGE =           0.0000
      STREAM LEAKAGE =   330942807.1684        STREAM LEAKAGE =     1145571.2438

           TOTAL OUT =   354232944.1684             TOTAL OUT =     1230571.7438

            IN - OUT =         -11.0495              IN - OUT =      -4.1947E-02

 PERCENT DISCREPANCY =          -0.00     PERCENT DISCREPANCY =          -0.00






         TIME SUMMARY AT END OF TIME STEP    1 IN STRESS PERIOD    3
                    SECONDS     MINUTES      HOURS       DAYS        YEARS
                    -----------------------------------------------------------
   TIME STEP LENGTH 7.86240E+06 1.31040E+05  2184.0      91.000     0.24914    
 STRESS PERIOD TIME 7.86240E+06 1.31040E+05  2184.0      91.000     0.24914    
         TOTAL TIME 2.36736E+07 3.94560E+05  6576.0      274.00     0.75017    
1
1
                            STRESS PERIOD NO.    4, LENGTH =   91.00000    
                            -----------------------------------------------

                              NUMBER OF TIME STEPS =     1

                               MULTIPLIER FOR DELT =     1.500

                            INITIAL TIME STEP SIZE =   91.00000    

 WELL NO.  LAYER   ROW   COL   STRESS RATE         
 --------------------------------------------------
      1      1     22     29     -0.3000E+05
      2      1     24     24       0.000    
      3      1     24     27      -5001.    

      3 WELLS

                 RECHARGE =  1.000000E-03

 REUSING STREAM SEGMENT DATA FROM LAST STRESS PERIOD
 
 SOLVING FOR HEAD 


     6 CALLS TO PCG ROUTINE FOR TIME STEP   1 IN STRESS PERIOD    4
    22 TOTAL ITERATIONS

 OUTPUT CONTROL FOR STRESS PERIOD    4   TIME STEP    1
    SAVE BUDGET
    SAVE HEAD FOR ALL LAYERS
    PRINT HEAD FOR ALL LAYERS
 UBDSV2 SAVING "STREAMFLOW OUT  " ON UNIT  50 AT TIME STEP  1, STRESS PERIOD   4



 STREAM LISTING     PERIOD      4   STEP        1

 LAYER ROW COL. STREAM  RCH.  FLOW INTO     FLOW TO   FLOW OUT OF   OVRLND.     DIRECT     STREAM       STREAM     STREAM     STREAM   STREAMBED  STREAMBED
                SEG.NO.  NO.  STRM. RCH.    AQUIFER    STRM. RCH.    RUNOFF     PRECIP       ET          HEAD       DEPTH      WIDTH   CONDCTNC.   GRADIENT

   1   13    1     1     1    1.0000E+05 -2.7911E+04   1.2791E+05  0.000E+00  0.000E+00  0.000E+00  4.84178E+01  1.564E-01  2.000E+01  2.000E+04 -1.396E+00
   1   13    2     1     2    1.2791E+05 -3.7672E+04   1.6558E+05  0.000E+00  0.000E+00  0.000E+00  4.79662E+01  1.821E-01  2.000E+01  2.000E+04 -1.884E+00
   1   14    3     1     3    1.6558E+05 -3.3148E+04   1.9873E+05  0.000E+00  0.000E+00  0.000E+00  4.75141E+01  2.073E-01  2.000E+01  2.000E+04 -1.657E+00
   1   15    4     1     4    1.9873E+05 -3.2383E+04   2.3111E+05  0.000E+00  0.000E+00  0.000E+00  4.70585E+01  2.289E-01  2.000E+01  2.000E+04 -1.619E+00
   1   16    5     1     5    2.3111E+05 -3.3895E+04   2.6501E+05  0.000E+00  0.000E+00  0.000E+00  4.66018E+01  2.495E-01  2.000E+01  2.000E+04 -1.695E+00
   1   16    6     1     6    2.6501E+05 -2.9624E+04   2.9463E+05  0.000E+00  0.000E+00  0.000E+00  4.61432E+01  2.682E-01  2.000E+01  2.000E+04 -1.481E+00
   1   16    7     1     7    2.9463E+05 -2.9456E+04   3.2409E+05  0.000E+00  0.000E+00  0.000E+00  4.56826E+01  2.848E-01  2.000E+01  2.000E+04 -1.473E+00
   1   16    8     1     8    3.2409E+05 -2.9651E+04   3.5374E+05  0.000E+00  0.000E+00  0.000E+00  4.52213E+01  3.009E-01  2.000E+01  2.000E+04 -1.483E+00
   1   16    9     1     9    3.5374E+05 -2.9746E+04   3.8349E+05  0.000E+00  0.000E+00  0.000E+00  4.47596E+01  3.164E-01  2.000E+01  2.000E+04 -1.487E+00
   1   16   10     1    10    3.8349E+05 -2.9790E+04   4.1328E+05  0.000E+00  0.000E+00  0.000E+00  4.42974E+01  3.315E-01  2.000E+01  2.000E+04 -1.490E+00
   1   16   11     1    11    4.1328E+05 -3.0415E+04   4.4369E+05  0.000E+00  0.000E+00  0.000E+00  4.38350E+01  3.463E-01  2.000E+01  2.000E+04 -1.521E+00
   1   16   12     1    12    4.4369E+05 -3.5971E+04   4.7966E+05  0.000E+00  0.000E+00  0.000E+00  4.33735E+01  3.622E-01  2.000E+01  2.000E+04 -1.799E+00
   1   15   13     1    13    4.7966E+05 -3.4729E+04   5.1439E+05  0.000E+00  0.000E+00  0.000E+00  4.29127E+01  3.786E-01  2.000E+01  2.000E+04 -1.736E+00
   1   14   14     1    14    5.1439E+05 -3.5326E+04   5.4972E+05  0.000E+00  0.000E+00  0.000E+00  4.24512E+01  3.944E-01  2.000E+01  2.000E+04 -1.766E+00
   1   13   15     1    15    5.4972E+05 -3.7553E+04   5.8727E+05  0.000E+00  0.000E+00  0.000E+00  4.19899E+01  4.104E-01  2.000E+01  2.000E+04 -1.878E+00
   1   12   16     1    16    5.8727E+05 -4.3601E+04   6.3087E+05  0.000E+00  0.000E+00  0.000E+00  4.15300E+01  4.277E-01  2.000E+01  2.000E+04 -2.180E+00
   1   12   17     1    17    6.3087E+05 -3.4112E+04   6.6498E+05  0.000E+00  0.000E+00  0.000E+00  4.10689E+01  4.439E-01  2.000E+01  2.000E+04 -1.706E+00
   1   12   18     1    18    6.6498E+05 -3.2487E+04   6.9747E+05  0.000E+00  0.000E+00  0.000E+00  4.06051E+01  4.574E-01  2.000E+01  2.000E+04 -1.624E+00
   1   12   19     1    19    6.9747E+05 -3.6576E+04   7.3405E+05  0.000E+00  0.000E+00  0.000E+00  4.01416E+01  4.712E-01  2.000E+01  2.000E+04 -1.829E+00
   1   13   20     1    20    7.3405E+05 -2.6840E+04   7.6089E+05  0.000E+00  0.000E+00  0.000E+00  3.96768E+01  4.836E-01  2.000E+01  2.000E+04 -1.342E+00
   1   14   21     1    21    7.6089E+05 -1.9677E+04   7.8056E+05  0.000E+00  0.000E+00  0.000E+00  3.92085E+01  4.926E-01  2.000E+01  2.000E+04 -9.838E-01
   1   14   22     1    22    7.8056E+05 -1.7132E+03   7.8228E+05  0.000E+00  0.000E+00  0.000E+00  3.87353E+01  4.967E-01  2.000E+01  2.000E+04 -8.566E-02
   1    9   30     2     1    5.0000E+04 -2.6601E+04   7.6601E+04  0.000E+00  0.000E+00  0.000E+00  4.02585E+01  1.335E-01  2.000E+01  2.000E+04 -1.330E+00
   1    9   29     2     2    7.6601E+04 -2.9072E+04   1.0567E+05  0.000E+00  0.000E+00  0.000E+00  4.00411E+01  1.661E-01  2.000E+01  2.000E+04 -1.454E+00
   1    9   28     2     3    1.0567E+05 -3.3369E+04   1.3904E+05  0.000E+00  0.000E+00  0.000E+00  3.98232E+01  1.982E-01  2.000E+01  2.000E+04 -1.668E+00
   1    9   27     2     4    1.3904E+05 -4.7524E+04   1.8657E+05  0.000E+00  0.000E+00  0.000E+00  3.96103E+01  2.353E-01  2.000E+01  2.000E+04 -2.376E+00
   1   10   26     2     5    1.8657E+05 -3.3495E+04   2.2006E+05  0.000E+00  0.000E+00  0.000E+00  3.93938E+01  2.688E-01  2.000E+01  2.000E+04 -1.675E+00
   1   11   25     2     6    2.2006E+05 -2.5148E+04   2.4521E+05  0.000E+00  0.000E+00  0.000E+00  3.91665E+01  2.915E-01  2.000E+01  2.000E+04 -1.257E+00
   1   12   24     2     7    2.4521E+05 -1.8576E+04   2.6379E+05  0.000E+00  0.000E+00  0.000E+00  3.89326E+01  3.076E-01  2.000E+01  2.000E+04 -9.288E-01
   1   13   23     2     8    2.6379E+05 -1.3212E+04   2.7700E+05  0.000E+00  0.000E+00  0.000E+00  3.86940E+01  3.190E-01  2.000E+01  2.000E+04 -6.606E-01
   1   14   22     2     9    2.7700E+05 -7.3946E+03   2.8439E+05  0.000E+00  0.000E+00  0.000E+00  3.84512E+01  3.262E-01  2.000E+01  2.000E+04 -3.697E-01
   1   14   22     3     1    1.0667E+06 -1.5331E+04   1.0820E+06  0.000E+00  0.000E+00  0.000E+00  3.80544E+01  4.989E-01  2.000E+01  2.000E+04 -7.665E-01
   1   15   23     3     2    1.0820E+06 -2.3433E+04   1.1054E+06  0.000E+00  0.000E+00  0.000E+00  3.71709E+01  5.042E-01  2.000E+01  2.000E+04 -1.172E+00
   1   15   24     3     3    1.1054E+06 -1.9445E+04   1.1249E+06  0.000E+00  0.000E+00  0.000E+00  3.62879E+01  5.102E-01  2.000E+01  2.000E+04 -9.723E-01
   1   15   25     3     4    1.1249E+06 -1.9007E+04   1.1439E+06  0.000E+00  0.000E+00  0.000E+00  3.54043E+01  5.154E-01  2.000E+01  2.000E+04 -9.503E-01
   1   15   26     3     5    1.1439E+06 -2.1732E+04   1.1656E+06  0.000E+00  0.000E+00  0.000E+00  3.45209E+01  5.209E-01  2.000E+01  2.000E+04 -1.087E+00
   1   16   27     3     6    1.1656E+06 -2.8411E+04   1.1940E+06  0.000E+00  0.000E+00  0.000E+00  3.36388E+01  5.277E-01  2.000E+01  2.000E+04 -1.421E+00
   1   17   28     3     7    1.1940E+06 -3.4679E+04   1.2287E+06  0.000E+00  0.000E+00  0.000E+00  3.27583E+01  5.361E-01  2.000E+01  2.000E+04 -1.734E+00
   1   18   29     3     8    1.2287E+06 -4.4046E+04   1.2728E+06  0.000E+00  0.000E+00  0.000E+00  3.18798E+01  5.465E-01  2.000E+01  2.000E+04 -2.202E+00
   1   18   30     3     9    1.2728E+06 -4.0854E+04   1.3136E+06  0.000E+00  0.000E+00  0.000E+00  3.10020E+01  5.576E-01  2.000E+01  2.000E+04 -2.043E+00



1
              HEAD IN LAYER   1 AT END OF TIME STEP   1 IN STRESS PERIOD    4
  ---------------------------------------------------------------------------

          1      2      3      4      5      6      7      8      9     10
         11     12     13     14     15     16     17     18     19     20
         21     22     23     24     25     26     27     28     29     30
 .........................................................................
   1  ****** ****** ****** ****** ****** ****** ****** ****** ****** ******
      ****** ****** ****** ****** ****** ****** ****** ****** ****** ******
      ****** ****** ****** ****** ****** ****** ****** ****** ****** ******
   2  ****** ****** ****** ****** ****** ****** ****** ****** ****** ******
      ****** ****** ****** ****** ****** ****** ****** ****** ****** ******
      ****** ****** ****** ****** ****** ****** ****** ****** ****** ******
   3  ****** ****** ****** ****** ****** ****** ****** ****** ****** ******
      ****** ****** ****** ****** ****** ****** ****** ****** ****** ******
      ****** ****** ****** ****** ****** ****** ****** ****** ****** ******
   4  ****** ****** ****** ****** ****** ****** ****** ****** ****** ******
      ****** ****** ****** ****** ****** ****** ****** ****** ****** ******
      ****** ****** ****** ****** ****** ****** ****** ****** ****** ******
   5  ****** ****** ****** ****** ****** ****** ****** ****** ****** ******
      ****** ****** ****** ****** ****** ****** ****** ****** ****** ******
      ****** ****** ****** ****** ****** ****** ****** ****** ****** ******
   6  ****** ****** ****** ****** ****** ****** ****** ****** ****** ******
      ****** ****** ****** ****** ****** ****** ****** ****** ****** ******
      ****** ****** ****** ****** ****** ****** ****** ****** ****** ******
   7  ****** ****** ****** ****** ****** ****** ****** ****** ****** ******
      ****** ****** ****** ****** ****** ****** ****** ****** ****** ******
      ****** ****** ****** ****** ****** ****** ****** ****** ****** ******
   8  ****** ****** ****** ****** ****** ****** ****** ****** ****** ******
      ****** ****** ****** ****** ****** ****** ****** ****** ****** ******
      ****** ****** ****** ****** ****** ****** ****** ****** ****** ******
   9  ****** ****** ****** ****** ****** ****** ****** ****** ****** ******
      ****** ****** ****** ****** ****** ****** ****** ****** ****** ******
      ****** ****** ****** ****** ****** ****** ****** ****** ****** ******
  10  ****** ****** ****** ****** ****** ****** ****** ****** ****** ******
      ****** ****** ****** ****** ****** ****** ****** ****** ****** ******
      ****** ****** ****** ****** ****** ****** ****** ****** ****** ******
  11  ****** ****** ****** ****** ****** ****** ****** ****** ****** ******
      ****** ****** ****** ****** ****** ****** ****** ****** ****** ******
      ****** ****** ****** ****** ****** ****** ****** ****** ****** ******
  12  ****** ****** ****** ****** ****** ****** ****** ****** ****** ******
      ****** ****** ****** ****** ****** ****** ****** ****** ****** ******
      ****** ****** ****** ****** ****** ****** ****** ****** ****** ******
  13  ****** ****** ****** ****** ****** ****** ****** ****** ****** ******
      ****** ****** ****** ****** ****** ****** ****** ****** ****** ******
      ****** ****** ****** ****** ****** ****** ****** ****** ****** ******
  14  ****** ****** ****** ****** ****** ****** ****** ****** ****** ******
      ****** ****** ****** ****** ****** ****** ****** ****** ****** ******
      ****** ****** ****** ****** ****** ****** ****** ****** ****** ******
  15  ****** ****** ****** ****** ****** ****** ****** ****** ****** ******
      ****** ****** ****** ****** ****** ****** ****** ****** ****** ******
      ****** ****** ****** ****** ****** ****** ****** ****** ****** ******
  16  ****** ****** ****** ****** ****** ****** ****** ****** ****** ******
      ****** ****** ****** ****** ****** ****** ****** ****** ****** ******
      ****** ****** ****** ****** ****** ****** ****** ****** ****** ******
  17  ****** ****** ****** ****** ****** ****** ****** ****** ****** ******
      ****** ****** ****** ****** ****** ****** ****** ****** ****** ******
      ****** ****** ****** ****** ****** ****** ****** ****** ****** ******
  18  ****** ****** ****** ****** ****** ****** ****** ****** ****** ******
      ****** ****** ****** ****** ****** ****** ****** ****** ****** ******
      ****** ****** ****** ****** ****** ****** ****** ****** ****** ******
  19  ****** ****** ****** ****** ****** ****** ****** ****** ****** ******
      ****** ****** ****** ****** ****** ****** ****** ****** ****** ******
      ****** ****** ****** ****** ****** ****** ****** ****** ****** ******
  20  ****** ****** ****** ****** ****** ****** ****** ****** ****** ******
      ****** ****** ****** ****** ****** ****** ****** ****** ****** ******
      ****** ****** ****** ****** ****** ****** ****** ****** ****** ******
  21  ****** ****** ****** ****** ****** ****** ****** ****** ****** ******
      ****** ****** ****** ****** ****** ****** ****** ****** ****** ******
      ****** ****** ****** ****** ****** ****** ****** ****** ****** ******
  22  ****** ****** ****** ****** ****** ****** ****** ****** ****** ******
      ****** ****** ****** ****** ****** ****** ****** ****** ****** ******
      ****** ****** ****** ****** ****** ****** ****** ****** ****** ******
  23  ****** ****** ****** ****** ****** ****** ****** ****** ****** ******
      ****** ****** ****** ****** ****** ****** ****** ****** ****** ******
      ****** ****** ****** ****** ****** ****** ****** ****** ****** ******
  24  ****** ****** ****** ****** ****** ****** ****** ****** ****** ******
      ****** ****** ****** ****** ****** ****** ****** ****** ****** ******
      ****** ****** ****** ****** ****** ****** ****** ****** ****** ******
  25  ****** ****** ****** ****** ****** ****** ****** ****** ****** ******
      ****** ****** ****** ****** ****** ****** ****** ****** ****** ******
      ****** ****** ****** ****** ****** ****** ****** ****** ****** ******

 HEAD WILL BE SAVED ON UNIT   51 AT END OF TIME STEP    1, STRESS PERIOD    4
1
  VOLUMETRIC BUDGET FOR ENTIRE MODEL AT END OF TIME STEP    1, STRESS PERIOD   4
  ------------------------------------------------------------------------------

     CUMULATIVE VOLUMES      L**3       RATES FOR THIS TIME STEP      L**3/T
     ------------------                 ------------------------

           IN:                                      IN:
           ---                                      ---
             STORAGE =    19991809.2018               STORAGE =           0.0000
       CONSTANT HEAD =   434699658.5978         CONSTANT HEAD =     1173091.5899
               WELLS =           0.0000                 WELLS =           0.0000
            RECHARGE =     8804400.0000              RECHARGE =       27600.0000
      STREAM LEAKAGE =           0.0000        STREAM LEAKAGE =           0.0000

            TOTAL IN =   463495867.7997              TOTAL IN =     1200691.5899

          OUT:                                     OUT:
          ----                                     ----
             STORAGE =      189855.1805               STORAGE =        2086.3207
       CONSTANT HEAD =           0.0000         CONSTANT HEAD =           0.0000
               WELLS =    26475182.5000                 WELLS =       35000.5000
            RECHARGE =           0.0000              RECHARGE =           0.0000
      STREAM LEAKAGE =   436830838.7470        STREAM LEAKAGE =     1163604.7426

           TOTAL OUT =   463495876.4275             TOTAL OUT =     1200691.5633

            IN - OUT =          -8.6278              IN - OUT =       2.6612E-02

 PERCENT DISCREPANCY =          -0.00     PERCENT DISCREPANCY =           0.00






         TIME SUMMARY AT END OF TIME STEP    1 IN STRESS PERIOD    4
                    SECONDS     MINUTES      HOURS       DAYS        YEARS
                    -----------------------------------------------------------
   TIME STEP LENGTH 7.86240E+06 1.31040E+05  2184.0      91.000     0.24914    
 STRESS PERIOD TIME 7.86240E+06 1.31040E+05  2184.0      91.000     0.24914    
         TOTAL TIME 3.15360E+07 5.25600E+05  8760.0      365.00     0.99932    
1
1
                            STRESS PERIOD NO.    5, LENGTH =   92.00000    
                            -----------------------------------------------

                              NUMBER OF TIME STEPS =     1

                               MULTIPLIER FOR DELT =     1.500

                            INITIAL TIME STEP SIZE =   92.00000    

 WELL NO.  LAYER   ROW   COL   STRESS RATE         
 --------------------------------------------------
      1      1     22     29     -0.3000E+05
      2      1     24     24     -0.5000E+05
      3      1     24     27      -5001.    

      3 WELLS

                 RECHARGE =  5.000000E-04

 REUSING STREAM SEGMENT DATA FROM LAST STRESS PERIOD
 
 SOLVING FOR HEAD 


     6 CALLS TO PCG ROUTINE FOR TIME STEP   1 IN STRESS PERIOD    5
    22 TOTAL ITERATIONS

 OUTPUT CONTROL FOR STRESS PERIOD    5   TIME STEP    1
    SAVE BUDGET
    SAVE HEAD FOR ALL LAYERS
    PRINT HEAD FOR ALL LAYERS
 UBDSV2 SAVING "STREAMFLOW OUT  " ON UNIT  50 AT TIME STEP  1, STRESS PERIOD   5



 STREAM LISTING     PERIOD      5   STEP        1

 LAYER ROW COL. STREAM  RCH.  FLOW INTO     FLOW TO   FLOW OUT OF   OVRLND.     DIRECT     STREAM       STREAM     STREAM     STREAM   STREAMBED  STREAMBED
                SEG.NO.  NO.  STRM. RCH.    AQUIFER    STRM. RCH.    RUNOFF     PRECIP       ET          HEAD       DEPTH      WIDTH   CONDCTNC.   GRADIENT

   1   13    1     1     1    1.0000E+05 -2.7710E+04   1.2771E+05  0.000E+00  0.000E+00  0.000E+00  4.84177E+01  1.564E-01  2.000E+01  2.000E+04 -1.386E+00
   1   13    2     1     2    1.2771E+05 -3.7433E+04   1.6514E+05  0.000E+00  0.000E+00  0.000E+00  4.79659E+01  1.818E-01  2.000E+01  2.000E+04 -1.872E+00
   1   14    3     1     3    1.6514E+05 -3.2912E+04   1.9806E+05  0.000E+00  0.000E+00  0.000E+00  4.75137E+01  2.069E-01  2.000E+01  2.000E+04 -1.646E+00
   1   15    4     1     4    1.9806E+05 -3.2154E+04   2.3021E+05  0.000E+00  0.000E+00  0.000E+00  4.70580E+01  2.284E-01  2.000E+01  2.000E+04 -1.608E+00
   1   16    5     1     5    2.3021E+05 -3.3685E+04   2.6389E+05  0.000E+00  0.000E+00  0.000E+00  4.66012E+01  2.489E-01  2.000E+01  2.000E+04 -1.684E+00
   1   16    6     1     6    2.6389E+05 -2.9440E+04   2.9333E+05  0.000E+00  0.000E+00  0.000E+00  4.61425E+01  2.675E-01  2.000E+01  2.000E+04 -1.472E+00
   1   16    7     1     7    2.9333E+05 -2.9272E+04   3.2261E+05  0.000E+00  0.000E+00  0.000E+00  4.56818E+01  2.841E-01  2.000E+01  2.000E+04 -1.464E+00
   1   16    8     1     8    3.2261E+05 -2.9464E+04   3.5207E+05  0.000E+00  0.000E+00  0.000E+00  4.52205E+01  3.000E-01  2.000E+01  2.000E+04 -1.473E+00
   1   16    9     1     9    3.5207E+05 -2.9554E+04   3.8162E+05  0.000E+00  0.000E+00  0.000E+00  4.47587E+01  3.155E-01  2.000E+01  2.000E+04 -1.478E+00
   1   16   10     1    10    3.8162E+05 -2.9591E+04   4.1122E+05  0.000E+00  0.000E+00  0.000E+00  4.42964E+01  3.305E-01  2.000E+01  2.000E+04 -1.480E+00
   1   16   11     1    11    4.1122E+05 -3.0199E+04   4.4141E+05  0.000E+00  0.000E+00  0.000E+00  4.38339E+01  3.453E-01  2.000E+01  2.000E+04 -1.510E+00
   1   16   12     1    12    4.4141E+05 -3.5689E+04   4.7710E+05  0.000E+00  0.000E+00  0.000E+00  4.33724E+01  3.610E-01  2.000E+01  2.000E+04 -1.784E+00
   1   15   13     1    13    4.7710E+05 -3.4422E+04   5.1153E+05  0.000E+00  0.000E+00  0.000E+00  4.29114E+01  3.773E-01  2.000E+01  2.000E+04 -1.721E+00
   1   14   14     1    14    5.1153E+05 -3.5012E+04   5.4654E+05  0.000E+00  0.000E+00  0.000E+00  4.24498E+01  3.930E-01  2.000E+01  2.000E+04 -1.751E+00
   1   13   15     1    15    5.4654E+05 -3.7252E+04   5.8379E+05  0.000E+00  0.000E+00  0.000E+00  4.19885E+01  4.089E-01  2.000E+01  2.000E+04 -1.863E+00
   1   12   16     1    16    5.8379E+05 -4.3336E+04   6.2713E+05  0.000E+00  0.000E+00  0.000E+00  4.15284E+01  4.262E-01  2.000E+01  2.000E+04 -2.167E+00
   1   12   17     1    17    6.2713E+05 -3.3881E+04   6.6101E+05  0.000E+00  0.000E+00  0.000E+00  4.10673E+01  4.423E-01  2.000E+01  2.000E+04 -1.694E+00
   1   12   18     1    18    6.6101E+05 -3.2259E+04   6.9327E+05  0.000E+00  0.000E+00  0.000E+00  4.06035E+01  4.558E-01  2.000E+01  2.000E+04 -1.613E+00
   1   12   19     1    19    6.9327E+05 -3.6330E+04   7.2960E+05  0.000E+00  0.000E+00  0.000E+00  4.01399E+01  4.695E-01  2.000E+01  2.000E+04 -1.817E+00
   1   13   20     1    20    7.2960E+05 -2.6542E+04   7.5614E+05  0.000E+00  0.000E+00  0.000E+00  3.96750E+01  4.818E-01  2.000E+01  2.000E+04 -1.327E+00
   1   14   21     1    21    7.5614E+05 -1.9315E+04   7.7545E+05  0.000E+00  0.000E+00  0.000E+00  3.92066E+01  4.907E-01  2.000E+01  2.000E+04 -9.657E-01
   1   14   22     1    22    7.7545E+05 -1.5796E+03   7.7703E+05  0.000E+00  0.000E+00  0.000E+00  3.87333E+01  4.947E-01  2.000E+01  2.000E+04 -7.898E-02
   1    9   30     2     1    5.0000E+04 -2.6449E+04   7.6449E+04  0.000E+00  0.000E+00  0.000E+00  4.02584E+01  1.334E-01  2.000E+01  2.000E+04 -1.322E+00
   1    9   29     2     2    7.6449E+04 -2.8920E+04   1.0537E+05  0.000E+00  0.000E+00  0.000E+00  4.00409E+01  1.659E-01  2.000E+01  2.000E+04 -1.446E+00
   1    9   28     2     3    1.0537E+05 -3.3214E+04   1.3858E+05  0.000E+00  0.000E+00  0.000E+00  3.98229E+01  1.979E-01  2.000E+01  2.000E+04 -1.661E+00
   1    9   27     2     4    1.3858E+05 -4.7338E+04   1.8592E+05  0.000E+00  0.000E+00  0.000E+00  3.96098E+01  2.348E-01  2.000E+01  2.000E+04 -2.367E+00
   1   10   26     2     5    1.8592E+05 -3.3295E+04   2.1922E+05  0.000E+00  0.000E+00  0.000E+00  3.93932E+01  2.682E-01  2.000E+01  2.000E+04 -1.665E+00
   1   11   25     2     6    2.1922E+05 -2.4948E+04   2.4417E+05  0.000E+00  0.000E+00  0.000E+00  3.91657E+01  2.907E-01  2.000E+01  2.000E+04 -1.247E+00
   1   12   24     2     7    2.4417E+05 -1.8385E+04   2.6255E+05  0.000E+00  0.000E+00  0.000E+00  3.89318E+01  3.068E-01  2.000E+01  2.000E+04 -9.192E-01
   1   13   23     2     8    2.6255E+05 -1.3031E+04   2.7558E+05  0.000E+00  0.000E+00  0.000E+00  3.86930E+01  3.180E-01  2.000E+01  2.000E+04 -6.515E-01
   1   14   22     2     9    2.7558E+05 -7.2423E+03   2.8282E+05  0.000E+00  0.000E+00  0.000E+00  3.84502E+01  3.252E-01  2.000E+01  2.000E+04 -3.621E-01
   1   14   22     3     1    1.0599E+06 -1.5196E+04   1.0751E+06  0.000E+00  0.000E+00  0.000E+00  3.80525E+01  4.969E-01  2.000E+01  2.000E+04 -7.598E-01
   1   15   23     3     2    1.0751E+06 -2.2908E+04   1.0980E+06  0.000E+00  0.000E+00  0.000E+00  3.71689E+01  5.022E-01  2.000E+01  2.000E+04 -1.145E+00
   1   15   24     3     3    1.0980E+06 -1.9014E+04   1.1170E+06  0.000E+00  0.000E+00  0.000E+00  3.62858E+01  5.080E-01  2.000E+01  2.000E+04 -9.507E-01
   1   15   25     3     4    1.1170E+06 -1.8614E+04   1.1356E+06  0.000E+00  0.000E+00  0.000E+00  3.54021E+01  5.132E-01  2.000E+01  2.000E+04 -9.307E-01
   1   15   26     3     5    1.1356E+06 -2.1359E+04   1.1569E+06  0.000E+00  0.000E+00  0.000E+00  3.45186E+01  5.186E-01  2.000E+01  2.000E+04 -1.068E+00
   1   16   27     3     6    1.1569E+06 -2.7827E+04   1.1848E+06  0.000E+00  0.000E+00  0.000E+00  3.36364E+01  5.253E-01  2.000E+01  2.000E+04 -1.391E+00
   1   17   28     3     7    1.1848E+06 -3.3976E+04   1.2187E+06  0.000E+00  0.000E+00  0.000E+00  3.27558E+01  5.336E-01  2.000E+01  2.000E+04 -1.699E+00
   1   18   29     3     8    1.2187E+06 -4.3253E+04   1.2620E+06  0.000E+00  0.000E+00  0.000E+00  3.18771E+01  5.438E-01  2.000E+01  2.000E+04 -2.163E+00
   1   18   30     3     9    1.2620E+06 -4.0295E+04   1.3023E+06  0.000E+00  0.000E+00  0.000E+00  3.09992E+01  5.547E-01  2.000E+01  2.000E+04 -2.015E+00



1
              HEAD IN LAYER   1 AT END OF TIME STEP   1 IN STRESS PERIOD    5
  ---------------------------------------------------------------------------

          1      2      3      4      5      6      7      8      9     10
         11     12     13     14     15     16     17     18     19     20
         21     22     23     24     25     26     27     28     29     30
 .........................................................................
   1  ****** ****** ****** ****** ****** ****** ****** ****** ****** ******
      ****** ****** ****** ****** ****** ****** ****** ****** ****** ******
      ****** ****** ****** ****** ****** ****** ****** ****** ****** ******
   2  ****** ****** ****** ****** ****** ****** ****** ****** ****** ******
      ****** ****** ****** ****** ****** ****** ****** ****** ****** ******
      ****** ****** ****** ****** ****** ****** ****** ****** ****** ******
   3  ****** ****** ****** ****** ****** ****** ****** ****** ****** ******
      ****** ****** ****** ****** ****** ****** ****** ****** ****** ******
      ****** ****** ****** ****** ****** ****** ****** ****** ****** ******
   4  ****** ****** ****** ****** ****** ****** ****** ****** ****** ******
      ****** ****** ****** ****** ****** ****** ****** ****** ****** ******
      ****** ****** ****** ****** ****** ****** ****** ****** ****** ******
   5  ****** ****** ****** ****** ****** ****** ****** ****** ****** ******
      ****** ****** ****** ****** ****** ****** ****** ****** ****** ******
      ****** ****** ****** ****** ****** ****** ****** ****** ****** ******
   6  ****** ****** ****** ****** ****** ****** ****** ****** ****** ******
      ****** ****** ****** ****** ****** ****** ****** ****** ****** ******
      ****** ****** ****** ****** ****** ****** ****** ****** ****** ******
   7  ****** ****** ****** ****** ****** ****** ****** ****** ****** ******
      ****** ****** ****** ****** ****** ****** ****** ****** ****** ******
      ****** ****** ****** ****** ****** ****** ****** ****** ****** ******
   8  ****** ****** ****** ****** ****** ****** ****** ****** ****** ******
      ****** ****** ****** ****** ****** ****** ****** ****** ****** ******
      ****** ****** ****** ****** ****** ****** ****** ****** ****** ******
   9  ****** ****** ****** ****** ****** ****** ****** ****** ****** ******
      ****** ****** ****** ****** ****** ****** ****** ****** ****** ******
      ****** ****** ****** ****** ****** ****** ****** ****** ****** ******
  10  ****** ****** ****** ****** ****** ****** ****** ****** ****** ******
      ****** ****** ****** ****** ****** ****** ****** ****** ****** ******
      ****** ****** ****** ****** ****** ****** ****** ****** ****** ******
  11  ****** ****** ****** ****** ****** ****** ****** ****** ****** ******
      ****** ****** ****** ****** ****** ****** ****** ****** ****** ******
      ****** ****** ****** ****** ****** ****** ****** ****** ****** ******
  12  ****** ****** ****** ****** ****** ****** ****** ****** ****** ******
      ****** ****** ****** ****** ****** ****** ****** ****** ****** ******
      ****** ****** ****** ****** ****** ****** ****** ****** ****** ******
  13  ****** ****** ****** ****** ****** ****** ****** ****** ****** ******
      ****** ****** ****** ****** ****** ****** ****** ****** ****** ******
      ****** ****** ****** ****** ****** ****** ****** ****** ****** ******
  14  ****** ****** ****** ****** ****** ****** ****** ****** ****** ******
      ****** ****** ****** ****** ****** ****** ****** ****** ****** ******
      ****** ****** ****** ****** ****** ****** ****** ****** ****** ******
  15  ****** ****** ****** ****** ****** ****** ****** ****** ****** ******
      ****** ****** ****** ****** ****** ****** ****** ****** ****** ******
      ****** ****** ****** ****** ****** ****** ****** ****** ****** ******
  16  ****** ****** ****** ****** ****** ****** ****** ****** ****** ******
      ****** ****** ****** ****** ****** ****** ****** ****** ****** ******
      ****** ****** ****** ****** ****** ****** ****** ****** ****** ******
  17  ****** ****** ****** ****** ****** ****** ****** ****** ****** ******
      ****** ****** ****** ****** ****** ****** ****** ****** ****** ******
      ****** ****** ****** ****** ****** ****** ****** ****** ****** ******
  18  ****** ****** ****** ****** ****** ****** ****** ****** ****** ******
      ****** ****** ****** ****** ****** ****** ****** ****** ****** ******
      ****** ****** ****** ****** ****** ****** ****** ****** ****** ******
  19  ****** ****** ****** ****** ****** ****** ****** ****** ****** ******
      ****** ****** ****** ****** ****** ****** ****** ****** ****** ******
      ****** ****** ****** ****** ****** ****** ****** ****** ****** ******
  20  ****** ****** ****** ****** ****** ****** ****** ****** ****** ******
      ****** ****** ****** ****** ****** ****** ****** ****** ****** ******
      ****** ****** ****** ****** ****** ****** ****** ****** ****** ******
  21  ****** ****** ****** ****** ****** ****** ****** ****** ****** ******
      ****** ****** ****** ****** ****** ****** ****** ****** ****** ******
      ****** ****** ****** ****** ****** ****** ****** ****** ****** ******
  22  ****** ****** ****** ****** ****** ****** ****** ****** ****** ******
      ****** ****** ****** ****** ****** ****** ****** ****** ****** ******
      ****** ****** ****** ****** ****** ****** ****** ****** ****** ******
  23  ****** ****** ****** ****** ****** ****** ****** ****** ****** ******
      ****** ****** ****** ****** ****** ****** ****** ****** ****** ******
      ****** ****** ****** ****** ****** ****** ****** ****** ****** ******
  24  ****** ****** ****** ****** ****** ****** ****** ****** ****** ******
      ****** ****** ****** ****** ****** ****** ****** ****** ****** ******
      ****** ****** ****** ****** ****** ****** ****** ****** ****** ******
  25  ****** ****** ****** ****** ****** ****** ****** ****** ****** ******
      ****** ****** ****** ****** ****** ****** ****** ****** ****** ******
      ****** ****** ****** ****** ****** ****** ****** ****** ****** ******

 HEAD WILL BE SAVED ON UNIT   51 AT END OF TIME STEP    1, STRESS PERIOD    5
1
  VOLUMETRIC BUDGET FOR ENTIRE MODEL AT END OF TIME STEP    1, STRESS PERIOD   5
  ------------------------------------------------------------------------------

     CUMULATIVE VOLUMES      L**3       RATES FOR THIS TIME STEP      L**3/T
     ------------------                 ------------------------

           IN:                                      IN:
           ---                                      ---
             STORAGE =    20128828.3114               STORAGE =        1489.3381
       CONSTANT HEAD =   547124403.3454         CONSTANT HEAD =     1222008.0951
               WELLS =           0.0000                 WELLS =           0.0000
            RECHARGE =    10074000.0000              RECHARGE =       13800.0000
      STREAM LEAKAGE =           0.0000        STREAM LEAKAGE =           0.0000

            TOTAL IN =   577327231.6568              TOTAL IN =     1237297.4332

          OUT:                                     OUT:
          ----                                     ----
             STORAGE =      189855.1805               STORAGE =           0.0000
       CONSTANT HEAD =           0.0000         CONSTANT HEAD =           0.0000
               WELLS =    34295228.5000                 WELLS =       85000.5000
            RECHARGE =           0.0000              RECHARGE =           0.0000
      STREAM LEAKAGE =   542842157.9750        STREAM LEAKAGE =     1152296.9481

           TOTAL OUT =   577327241.6555             TOTAL OUT =     1237297.4481

            IN - OUT =          -9.9987              IN - OUT =      -1.4901E-02

 PERCENT DISCREPANCY =          -0.00     PERCENT DISCREPANCY =          -0.00






         TIME SUMMARY AT END OF TIME STEP    1 IN STRESS PERIOD    5
                    SECONDS     MINUTES      HOURS       DAYS        YEARS
                    -----------------------------------------------------------
   TIME STEP LENGTH 7.94880E+06 1.32480E+05  2208.0      92.000     0.25188    
 STRESS PERIOD TIME 7.94880E+06 1.32480E+05  2208.0      92.000     0.25188    
         TOTAL TIME 3.94848E+07 6.58080E+05  10968.      457.00      1.2512    
1
1
                            STRESS PERIOD NO.    6, LENGTH =   91.00000    
                            -----------------------------------------------

                              NUMBER OF TIME STEPS =     1

                               MULTIPLIER FOR DELT =     1.500

                            INITIAL TIME STEP SIZE =   91.00000    

 WELL NO.  LAYER   ROW   COL   STRESS RATE         
 --------------------------------------------------
      1      1     22     29     -0.3000E+05
      2      1     24     24     -0.5000E+05
      3      1     24     27      -5001.    

      3 WELLS

                 RECHARGE =  2.000000E-03

 REUSING STREAM SEGMENT DATA FROM LAST STRESS PERIOD
 
 SOLVING FOR HEAD 


     6 CALLS TO PCG ROUTINE FOR TIME STEP   1 IN STRESS PERIOD    6
    22 TOTAL ITERATIONS

 OUTPUT CONTROL FOR STRESS PERIOD    6   TIME STEP    1
    SAVE BUDGET
    SAVE HEAD FOR ALL LAYERS
    PRINT HEAD FOR ALL LAYERS
 UBDSV2 SAVING "STREAMFLOW OUT  " ON UNIT  50 AT TIME STEP  1, STRESS PERIOD   6



 STREAM LISTING     PERIOD      6   STEP        1

 LAYER ROW COL. STREAM  RCH.  FLOW INTO     FLOW TO   FLOW OUT OF   OVRLND.     DIRECT     STREAM       STREAM     STREAM     STREAM   STREAMBED  STREAMBED
                SEG.NO.  NO.  STRM. RCH.    AQUIFER    STRM. RCH.    RUNOFF     PRECIP       ET          HEAD       DEPTH      WIDTH   CONDCTNC.   GRADIENT

   1   13    1     1     1    1.0000E+05 -2.8362E+04   1.2836E+05  0.000E+00  0.000E+00  0.000E+00  4.84180E+01  1.566E-01  2.000E+01  2.000E+04 -1.418E+00
   1   13    2     1     2    1.2836E+05 -3.8212E+04   1.6657E+05  0.000E+00  0.000E+00  0.000E+00  4.79667E+01  1.826E-01  2.000E+01  2.000E+04 -1.911E+00
   1   14    3     1     3    1.6657E+05 -3.3674E+04   2.0025E+05  0.000E+00  0.000E+00  0.000E+00  4.75150E+01  2.082E-01  2.000E+01  2.000E+04 -1.684E+00
   1   15    4     1     4    2.0025E+05 -3.2885E+04   2.3313E+05  0.000E+00  0.000E+00  0.000E+00  4.70596E+01  2.301E-01  2.000E+01  2.000E+04 -1.644E+00
   1   16    5     1     5    2.3313E+05 -3.4345E+04   2.6748E+05  0.000E+00  0.000E+00  0.000E+00  4.66031E+01  2.508E-01  2.000E+01  2.000E+04 -1.717E+00
   1   16    6     1     6    2.6748E+05 -3.0014E+04   2.9749E+05  0.000E+00  0.000E+00  0.000E+00  4.61447E+01  2.697E-01  2.000E+01  2.000E+04 -1.501E+00
   1   16    7     1     7    2.9749E+05 -2.9840E+04   3.2733E+05  0.000E+00  0.000E+00  0.000E+00  4.56843E+01  2.865E-01  2.000E+01  2.000E+04 -1.492E+00
   1   16    8     1     8    3.2733E+05 -3.0033E+04   3.5737E+05  0.000E+00  0.000E+00  0.000E+00  4.52231E+01  3.027E-01  2.000E+01  2.000E+04 -1.502E+00
   1   16    9     1     9    3.5737E+05 -3.0122E+04   3.8749E+05  0.000E+00  0.000E+00  0.000E+00  4.47616E+01  3.184E-01  2.000E+01  2.000E+04 -1.506E+00
   1   16   10     1    10    3.8749E+05 -3.0157E+04   4.1764E+05  0.000E+00  0.000E+00  0.000E+00  4.42995E+01  3.336E-01  2.000E+01  2.000E+04 -1.508E+00
   1   16   11     1    11    4.1764E+05 -3.0771E+04   4.4842E+05  0.000E+00  0.000E+00  0.000E+00  4.38372E+01  3.485E-01  2.000E+01  2.000E+04 -1.539E+00
   1   16   12     1    12    4.4842E+05 -3.6353E+04   4.8477E+05  0.000E+00  0.000E+00  0.000E+00  4.33759E+01  3.645E-01  2.000E+01  2.000E+04 -1.818E+00
   1   15   13     1    13    4.8477E+05 -3.5155E+04   5.1992E+05  0.000E+00  0.000E+00  0.000E+00  4.29151E+01  3.810E-01  2.000E+01  2.000E+04 -1.758E+00
   1   14   14     1    14    5.1992E+05 -3.5770E+04   5.5569E+05  0.000E+00  0.000E+00  0.000E+00  4.24537E+01  3.969E-01  2.000E+01  2.000E+04 -1.788E+00
   1   13   15     1    15    5.5569E+05 -3.8005E+04   5.9370E+05  0.000E+00  0.000E+00  0.000E+00  4.19926E+01  4.130E-01  2.000E+01  2.000E+04 -1.900E+00
   1   12   16     1    16    5.9370E+05 -4.4066E+04   6.3776E+05  0.000E+00  0.000E+00  0.000E+00  4.15328E+01  4.305E-01  2.000E+01  2.000E+04 -2.203E+00
   1   12   17     1    17    6.3776E+05 -3.4467E+04   6.7223E+05  0.000E+00  0.000E+00  0.000E+00  4.10718E+01  4.468E-01  2.000E+01  2.000E+04 -1.723E+00
   1   12   18     1    18    6.7223E+05 -3.2818E+04   7.0505E+05  0.000E+00  0.000E+00  0.000E+00  4.06081E+01  4.604E-01  2.000E+01  2.000E+04 -1.641E+00
   1   12   19     1    19    7.0505E+05 -3.6942E+04   7.4199E+05  0.000E+00  0.000E+00  0.000E+00  4.01447E+01  4.742E-01  2.000E+01  2.000E+04 -1.847E+00
   1   13   20     1    20    7.4199E+05 -2.7108E+04   7.6910E+05  0.000E+00  0.000E+00  0.000E+00  3.96799E+01  4.867E-01  2.000E+01  2.000E+04 -1.355E+00
   1   14   21     1    21    7.6910E+05 -1.9794E+04   7.8889E+05  0.000E+00  0.000E+00  0.000E+00  3.92116E+01  4.957E-01  2.000E+01  2.000E+04 -9.897E-01
   1   14   22     1    22    7.8889E+05 -1.7483E+03   7.9064E+05  0.000E+00  0.000E+00  0.000E+00  3.87385E+01  4.998E-01  2.000E+01  2.000E+04 -8.742E-02
   1    9   30     2     1    5.0000E+04 -2.6893E+04   7.6893E+04  0.000E+00  0.000E+00  0.000E+00  4.02587E+01  1.337E-01  2.000E+01  2.000E+04 -1.345E+00
   1    9   29     2     2    7.6893E+04 -2.9364E+04   1.0626E+05  0.000E+00  0.000E+00  0.000E+00  4.00416E+01  1.666E-01  2.000E+01  2.000E+04 -1.468E+00
   1    9   28     2     3    1.0626E+05 -3.3674E+04   1.3993E+05  0.000E+00  0.000E+00  0.000E+00  3.98239E+01  1.989E-01  2.000E+01  2.000E+04 -1.684E+00
   1    9   27     2     4    1.3993E+05 -4.7902E+04   1.8783E+05  0.000E+00  0.000E+00  0.000E+00  3.96112E+01  2.362E-01  2.000E+01  2.000E+04 -2.395E+00
   1   10   26     2     5    1.8783E+05 -3.3879E+04   2.2171E+05  0.000E+00  0.000E+00  0.000E+00  3.93950E+01  2.700E-01  2.000E+01  2.000E+04 -1.694E+00
   1   11   25     2     6    2.2171E+05 -2.5510E+04   2.4722E+05  0.000E+00  0.000E+00  0.000E+00  3.91678E+01  2.928E-01  2.000E+01  2.000E+04 -1.276E+00
   1   12   24     2     7    2.4722E+05 -1.8887E+04   2.6611E+05  0.000E+00  0.000E+00  0.000E+00  3.89342E+01  3.092E-01  2.000E+01  2.000E+04 -9.444E-01
   1   13   23     2     8    2.6611E+05 -1.3437E+04   2.7955E+05  0.000E+00  0.000E+00  0.000E+00  3.86957E+01  3.207E-01  2.000E+01  2.000E+04 -6.719E-01
   1   14   22     2     9    2.7955E+05 -7.4573E+03   2.8700E+05  0.000E+00  0.000E+00  0.000E+00  3.84530E+01  3.280E-01  2.000E+01  2.000E+04 -3.729E-01
   1   14   22     3     1    1.0776E+06 -1.5368E+04   1.0930E+06  0.000E+00  0.000E+00  0.000E+00  3.80575E+01  5.019E-01  2.000E+01  2.000E+04 -7.684E-01
   1   15   23     3     2    1.0930E+06 -2.3344E+04   1.1164E+06  0.000E+00  0.000E+00  0.000E+00  3.71739E+01  5.073E-01  2.000E+01  2.000E+04 -1.167E+00
   1   15   24     3     3    1.1164E+06 -1.9376E+04   1.1357E+06  0.000E+00  0.000E+00  0.000E+00  3.62909E+01  5.131E-01  2.000E+01  2.000E+04 -9.688E-01
   1   15   25     3     4    1.1357E+06 -1.8976E+04   1.1547E+06  0.000E+00  0.000E+00  0.000E+00  3.54073E+01  5.184E-01  2.000E+01  2.000E+04 -9.488E-01
   1   15   26     3     5    1.1547E+06 -2.1785E+04   1.1765E+06  0.000E+00  0.000E+00  0.000E+00  3.45239E+01  5.239E-01  2.000E+01  2.000E+04 -1.089E+00
   1   16   27     3     6    1.1765E+06 -2.8334E+04   1.2048E+06  0.000E+00  0.000E+00  0.000E+00  3.36417E+01  5.306E-01  2.000E+01  2.000E+04 -1.417E+00
   1   17   28     3     7    1.2048E+06 -3.4491E+04   1.2393E+06  0.000E+00  0.000E+00  0.000E+00  3.27612E+01  5.390E-01  2.000E+01  2.000E+04 -1.725E+00
   1   18   29     3     8    1.2393E+06 -4.3729E+04   1.2831E+06  0.000E+00  0.000E+00  0.000E+00  3.18826E+01  5.492E-01  2.000E+01  2.000E+04 -2.186E+00
   1   18   30     3     9    1.2831E+06 -4.0697E+04   1.3237E+06  0.000E+00  0.000E+00  0.000E+00  3.10046E+01  5.602E-01  2.000E+01  2.000E+04 -2.035E+00



1
              HEAD IN LAYER   1 AT END OF TIME STEP   1 IN STRESS PERIOD    6
  ---------------------------------------------------------------------------

          1      2      3      4      5      6      7      8      9     10
         11     12     13     14     15     16     17     18     19     20
         21     22     23     24     25     26     27     28     29     30
 .........................................................................
   1  ****** ****** ****** ****** ****** ****** ****** ****** ****** ******
      ****** ****** ****** ****** ****** ****** ****** ****** ****** ******
      ****** ****** ****** ****** ****** ****** ****** ****** ****** ******
   2  ****** ****** ****** ****** ****** ****** ****** ****** ****** ******
      ****** ****** ****** ****** ****** ****** ****** ****** ****** ******
      ****** ****** ****** ****** ****** ****** ****** ****** ****** ******
   3  ****** ****** ****** ****** ****** ****** ****** ****** ****** ******
      ****** ****** ****** ****** ****** ****** ****** ****** ****** ******
      ****** ****** ****** ****** ****** ****** ****** ****** ****** ******
   4  ****** ****** ****** ****** ****** ****** ****** ****** ****** ******
      ****** ****** ****** ****** ****** ****** ****** ****** ****** ******
      ****** ****** ****** ****** ****** ****** ****** ****** ****** ******
   5  ****** ****** ****** ****** ****** ****** ****** ****** ****** ******
      ****** ****** ****** ****** ****** ****** ****** ****** ****** ******
      ****** ****** ****** ****** ****** ****** ****** ****** ****** ******
   6  ****** ****** ****** ****** ****** ****** ****** ****** ****** ******
      ****** ****** ****** ****** ****** ****** ****** ****** ****** ******
      ****** ****** ****** ****** ****** ****** ****** ****** ****** ******
   7  ****** ****** ****** ****** ****** ****** ****** ****** ****** ******
      ****** ****** ****** ****** ****** ****** ****** ****** ****** ******
      ****** ****** ****** ****** ****** ****** ****** ****** ****** ******
   8  ****** ****** ****** ****** ****** ****** ****** ****** ****** ******
      ****** ****** ****** ****** ****** ****** ****** ****** ****** ******
      ****** ****** ****** ****** ****** ****** ****** ****** ****** ******
   9  ****** ****** ****** ****** ****** ****** ****** ****** ****** ******
      ****** ****** ****** ****** ****** ****** ****** ****** ****** ******
      ****** ****** ****** ****** ****** ****** ****** ****** ****** ******
  10  ****** ****** ****** ****** ****** ****** ****** ****** ****** ******
      ****** ****** ****** ****** ****** ****** ****** ****** ****** ******
      ****** ****** ****** ****** ****** ****** ****** ****** ****** ******
  11  ****** ****** ****** ****** ****** ****** ****** ****** ****** ******
      ****** ****** ****** ****** ****** ****** ****** ****** ****** ******
      ****** ****** ****** ****** ****** ****** ****** ****** ****** ******
  12  ****** ****** ****** ****** ****** ****** ****** ****** ****** ******
      ****** ****** ****** ****** ****** ****** ****** ****** ****** ******
      ****** ****** ****** ****** ****** ****** ****** ****** ****** ******
  13  ****** ****** ****** ****** ****** ****** ****** ****** ****** ******
      ****** ****** ****** ****** ****** ****** ****** ****** ****** ******
      ****** ****** ****** ****** ****** ****** ****** ****** ****** ******
  14  ****** ****** ****** ****** ****** ****** ****** ****** ****** ******
      ****** ****** ****** ****** ****** ****** ****** ****** ****** ******
      ****** ****** ****** ****** ****** ****** ****** ****** ****** ******
  15  ****** ****** ****** ****** ****** ****** ****** ****** ****** ******
      ****** ****** ****** ****** ****** ****** ****** ****** ****** ******
      ****** ****** ****** ****** ****** ****** ****** ****** ****** ******
  16  ****** ****** ****** ****** ****** ****** ****** ****** ****** ******
      ****** ****** ****** ****** ****** ****** ****** ****** ****** ******
      ****** ****** ****** ****** ****** ****** ****** ****** ****** ******
  17  ****** ****** ****** ****** ****** ****** ****** ****** ****** ******
      ****** ****** ****** ****** ****** ****** ****** ****** ****** ******
      ****** ****** ****** ****** ****** ****** ****** ****** ****** ******
  18  ****** ****** ****** ****** ****** ****** ****** ****** ****** ******
      ****** ****** ****** ****** ****** ****** ****** ****** ****** ******
      ****** ****** ****** ****** ****** ****** ****** ****** ****** ******
  19  ****** ****** ****** ****** ****** ****** ****** ****** ****** ******
      ****** ****** ****** ****** ****** ****** ****** ****** ****** ******
      ****** ****** ****** ****** ****** ****** ****** ****** ****** ******
  20  ****** ****** ****** ****** ****** ****** ****** ****** ****** ******
      ****** ****** ****** ****** ****** ****** ****** ****** ****** ******
      ****** ****** ****** ****** ****** ****** ****** ****** ****** ******
  21  ****** ****** ****** ****** ****** ****** ****** ****** ****** ******
      ****** ****** ****** ****** ****** ****** ****** ****** ****** ******
      ****** ****** ****** ****** ****** ****** ****** ****** ****** ******
  22  ****** ****** ****** ****** ****** ****** ****** ****** ****** ******
      ****** ****** ****** ****** ****** ****** ****** ****** ****** ******
      ****** ****** ****** ****** ****** ****** ****** ****** ****** ******
  23  ****** ****** ****** ****** ****** ****** ****** ****** ****** ******
      ****** ****** ****** ****** ****** ****** ****** ****** ****** ******
      ****** ****** ****** ****** ****** ****** ****** ****** ****** ******
  24  ****** ****** ****** ****** ****** ****** ****** ****** ****** ******
      ****** ****** ****** ****** ****** ****** ****** ****** ****** ******
      ****** ****** ****** ****** ****** ****** ****** ****** ****** ******
  25  ****** ****** ****** ****** ****** ****** ****** ****** ****** ******
      ****** ****** ****** ****** ****** ****** ****** ****** ****** ******
      ****** ****** ****** ****** ****** ****** ****** ****** ****** ******

 HEAD WILL BE SAVED ON UNIT   51 AT END OF TIME STEP    1, STRESS PERIOD    6
1
  VOLUMETRIC BUDGET FOR ENTIRE MODEL AT END OF TIME STEP    1, STRESS PERIOD   6
  ------------------------------------------------------------------------------

     CUMULATIVE VOLUMES      L**3       RATES FOR THIS TIME STEP      L**3/T
     ------------------                 ------------------------

           IN:                                      IN:
           ---                                      ---
             STORAGE =    20128828.3114               STORAGE =           0.0000
       CONSTANT HEAD =   656820428.3559         CONSTANT HEAD =     1205450.8243
               WELLS =           0.0000                 WELLS =           0.0000
            RECHARGE =    15097200.0000              RECHARGE =       55200.0000
      STREAM LEAKAGE =           0.0000        STREAM LEAKAGE =           0.0000

            TOTAL IN =   692046456.6673              TOTAL IN =     1260650.8243

          OUT:                                     OUT:
          ----                                     ----
             STORAGE =      362976.8346               STORAGE =        1902.4358
       CONSTANT HEAD =           0.0000         CONSTANT HEAD =           0.0000
               WELLS =    42030274.0000                 WELLS =       85000.5000
            RECHARGE =           0.0000              RECHARGE =           0.0000
      STREAM LEAKAGE =   649653212.8692        STREAM LEAKAGE =     1173747.8560

           TOTAL OUT =   692046463.7038             TOTAL OUT =     1260650.7917

            IN - OUT =          -7.0365              IN - OUT =       3.2552E-02

 PERCENT DISCREPANCY =          -0.00     PERCENT DISCREPANCY =           0.00






         TIME SUMMARY AT END OF TIME STEP    1 IN STRESS PERIOD    6
                    SECONDS     MINUTES      HOURS       DAYS        YEARS
                    -----------------------------------------------------------
   TIME STEP LENGTH 7.86240E+06 1.31040E+05  2184.0      91.000     0.24914    
 STRESS PERIOD TIME 7.86240E+06 1.31040E+05  2184.0      91.000     0.24914    
         TOTAL TIME 4.73472E+07 7.89120E+05  13152.      548.00      1.5003    
1
1
                            STRESS PERIOD NO.    7, LENGTH =   91.00000    
                            -----------------------------------------------

                              NUMBER OF TIME STEPS =     1

                               MULTIPLIER FOR DELT =     1.500

                            INITIAL TIME STEP SIZE =   91.00000    

 WELL NO.  LAYER   ROW   COL   STRESS RATE         
 --------------------------------------------------
      1      1     22     29     -0.3000E+05
      2      1     24     24     -0.5000E+05
      3      1     24     27     -0.5000E+05

      3 WELLS

                 RECHARGE =   0.00000    

 REUSING STREAM SEGMENT DATA FROM LAST STRESS PERIOD
 
 SOLVING FOR HEAD 


     6 CALLS TO PCG ROUTINE FOR TIME STEP   1 IN STRESS PERIOD    7
    23 TOTAL ITERATIONS

 OUTPUT CONTROL FOR STRESS PERIOD    7   TIME STEP    1
    SAVE BUDGET
    SAVE HEAD FOR ALL LAYERS
    PRINT HEAD FOR ALL LAYERS
 UBDSV2 SAVING "STREAMFLOW OUT  " ON UNIT  50 AT TIME STEP  1, STRESS PERIOD   7



 STREAM LISTING     PERIOD      7   STEP        1

 LAYER ROW COL. STREAM  RCH.  FLOW INTO     FLOW TO   FLOW OUT OF   OVRLND.     DIRECT     STREAM       STREAM     STREAM     STREAM   STREAMBED  STREAMBED
                SEG.NO.  NO.  STRM. RCH.    AQUIFER    STRM. RCH.    RUNOFF     PRECIP       ET          HEAD       DEPTH      WIDTH   CONDCTNC.   GRADIENT

   1   13    1     1     1    1.0000E+05 -2.7516E+04   1.2752E+05  0.000E+00  0.000E+00  0.000E+00  4.84176E+01  1.563E-01  2.000E+01  2.000E+04 -1.376E+00
   1   13    2     1     2    1.2752E+05 -3.7201E+04   1.6472E+05  0.000E+00  0.000E+00  0.000E+00  4.79657E+01  1.816E-01  2.000E+01  2.000E+04 -1.860E+00
   1   14    3     1     3    1.6472E+05 -3.2682E+04   1.9740E+05  0.000E+00  0.000E+00  0.000E+00  4.75134E+01  2.065E-01  2.000E+01  2.000E+04 -1.634E+00
   1   15    4     1     4    1.9740E+05 -3.1930E+04   2.2933E+05  0.000E+00  0.000E+00  0.000E+00  4.70575E+01  2.279E-01  2.000E+01  2.000E+04 -1.597E+00
   1   16    5     1     5    2.2933E+05 -3.3480E+04   2.6281E+05  0.000E+00  0.000E+00  0.000E+00  4.66006E+01  2.483E-01  2.000E+01  2.000E+04 -1.674E+00
   1   16    6     1     6    2.6281E+05 -2.9262E+04   2.9207E+05  0.000E+00  0.000E+00  0.000E+00  4.61418E+01  2.668E-01  2.000E+01  2.000E+04 -1.463E+00
   1   16    7     1     7    2.9207E+05 -2.9094E+04   3.2117E+05  0.000E+00  0.000E+00  0.000E+00  4.56811E+01  2.833E-01  2.000E+01  2.000E+04 -1.455E+00
   1   16    8     1     8    3.2117E+05 -2.9284E+04   3.5045E+05  0.000E+00  0.000E+00  0.000E+00  4.52197E+01  2.992E-01  2.000E+01  2.000E+04 -1.464E+00
   1   16    9     1     9    3.5045E+05 -2.9372E+04   3.7982E+05  0.000E+00  0.000E+00  0.000E+00  4.47578E+01  3.146E-01  2.000E+01  2.000E+04 -1.469E+00
   1   16   10     1    10    3.7982E+05 -2.9405E+04   4.0923E+05  0.000E+00  0.000E+00  0.000E+00  4.42955E+01  3.296E-01  2.000E+01  2.000E+04 -1.470E+00
   1   16   11     1    11    4.0923E+05 -3.0003E+04   4.3923E+05  0.000E+00  0.000E+00  0.000E+00  4.38329E+01  3.443E-01  2.000E+01  2.000E+04 -1.500E+00
   1   16   12     1    12    4.3923E+05 -3.5444E+04   4.7467E+05  0.000E+00  0.000E+00  0.000E+00  4.33713E+01  3.600E-01  2.000E+01  2.000E+04 -1.772E+00
   1   15   13     1    13    4.7467E+05 -3.4153E+04   5.0883E+05  0.000E+00  0.000E+00  0.000E+00  4.29103E+01  3.762E-01  2.000E+01  2.000E+04 -1.708E+00
   1   14   14     1    14    5.0883E+05 -3.4737E+04   5.4356E+05  0.000E+00  0.000E+00  0.000E+00  4.24486E+01  3.918E-01  2.000E+01  2.000E+04 -1.737E+00
   1   13   15     1    15    5.4356E+05 -3.6985E+04   5.8055E+05  0.000E+00  0.000E+00  0.000E+00  4.19871E+01  4.076E-01  2.000E+01  2.000E+04 -1.849E+00
   1   12   16     1    16    5.8055E+05 -4.3092E+04   6.2364E+05  0.000E+00  0.000E+00  0.000E+00  4.15270E+01  4.247E-01  2.000E+01  2.000E+04 -2.155E+00
   1   12   17     1    17    6.2364E+05 -3.3674E+04   6.5732E+05  0.000E+00  0.000E+00  0.000E+00  4.10658E+01  4.408E-01  2.000E+01  2.000E+04 -1.684E+00
   1   12   18     1    18    6.5732E+05 -3.2055E+04   6.8937E+05  0.000E+00  0.000E+00  0.000E+00  4.06019E+01  4.542E-01  2.000E+01  2.000E+04 -1.603E+00
   1   12   19     1    19    6.8937E+05 -3.6109E+04   7.2548E+05  0.000E+00  0.000E+00  0.000E+00  4.01383E+01  4.679E-01  2.000E+01  2.000E+04 -1.805E+00
   1   13   20     1    20    7.2548E+05 -2.6294E+04   7.5177E+05  0.000E+00  0.000E+00  0.000E+00  3.96733E+01  4.802E-01  2.000E+01  2.000E+04 -1.315E+00
   1   14   21     1    21    7.5177E+05 -1.9035E+04   7.7081E+05  0.000E+00  0.000E+00  0.000E+00  3.92048E+01  4.889E-01  2.000E+01  2.000E+04 -9.518E-01
   1   14   22     1    22    7.7081E+05 -1.4733E+03   7.7228E+05  0.000E+00  0.000E+00  0.000E+00  3.87315E+01  4.929E-01  2.000E+01  2.000E+04 -7.366E-02
   1    9   30     2     1    5.0000E+04 -2.6294E+04   7.6294E+04  0.000E+00  0.000E+00  0.000E+00  4.02583E+01  1.333E-01  2.000E+01  2.000E+04 -1.315E+00
   1    9   29     2     2    7.6294E+04 -2.8766E+04   1.0506E+05  0.000E+00  0.000E+00  0.000E+00  4.00406E+01  1.656E-01  2.000E+01  2.000E+04 -1.438E+00
   1    9   28     2     3    1.0506E+05 -3.3057E+04   1.3812E+05  0.000E+00  0.000E+00  0.000E+00  3.98225E+01  1.975E-01  2.000E+01  2.000E+04 -1.653E+00
   1    9   27     2     4    1.3812E+05 -4.7152E+04   1.8527E+05  0.000E+00  0.000E+00  0.000E+00  3.96093E+01  2.343E-01  2.000E+01  2.000E+04 -2.358E+00
   1   10   26     2     5    1.8527E+05 -3.3094E+04   2.1836E+05  0.000E+00  0.000E+00  0.000E+00  3.93926E+01  2.676E-01  2.000E+01  2.000E+04 -1.655E+00
   1   11   25     2     6    2.1836E+05 -2.4748E+04   2.4311E+05  0.000E+00  0.000E+00  0.000E+00  3.91650E+01  2.900E-01  2.000E+01  2.000E+04 -1.237E+00
   1   12   24     2     7    2.4311E+05 -1.8198E+04   2.6131E+05  0.000E+00  0.000E+00  0.000E+00  3.89309E+01  3.059E-01  2.000E+01  2.000E+04 -9.099E-01
   1   13   23     2     8    2.6131E+05 -1.2863E+04   2.7417E+05  0.000E+00  0.000E+00  0.000E+00  3.86921E+01  3.171E-01  2.000E+01  2.000E+04 -6.432E-01
   1   14   22     2     9    2.7417E+05 -7.1206E+03   2.8129E+05  0.000E+00  0.000E+00  0.000E+00  3.84492E+01  3.242E-01  2.000E+01  2.000E+04 -3.560E-01
   1   14   22     3     1    1.0536E+06 -1.5089E+04   1.0687E+06  0.000E+00  0.000E+00  0.000E+00  3.80507E+01  4.952E-01  2.000E+01  2.000E+04 -7.544E-01
   1   15   23     3     2    1.0687E+06 -2.2500E+04   1.0912E+06  0.000E+00  0.000E+00  0.000E+00  3.71671E+01  5.004E-01  2.000E+01  2.000E+04 -1.125E+00
   1   15   24     3     3    1.0912E+06 -1.8651E+04   1.1098E+06  0.000E+00  0.000E+00  0.000E+00  3.62839E+01  5.061E-01  2.000E+01  2.000E+04 -9.326E-01
   1   15   25     3     4    1.1098E+06 -1.8251E+04   1.1281E+06  0.000E+00  0.000E+00  0.000E+00  3.54001E+01  5.112E-01  2.000E+01  2.000E+04 -9.125E-01
   1   15   26     3     5    1.1281E+06 -2.0980E+04   1.1490E+06  0.000E+00  0.000E+00  0.000E+00  3.45166E+01  5.166E-01  2.000E+01  2.000E+04 -1.049E+00
   1   16   27     3     6    1.1490E+06 -2.7173E+04   1.1762E+06  0.000E+00  0.000E+00  0.000E+00  3.36342E+01  5.231E-01  2.000E+01  2.000E+04 -1.359E+00
   1   17   28     3     7    1.1762E+06 -3.3039E+04   1.2093E+06  0.000E+00  0.000E+00  0.000E+00  3.27534E+01  5.312E-01  2.000E+01  2.000E+04 -1.652E+00
   1   18   29     3     8    1.2093E+06 -4.1911E+04   1.2512E+06  0.000E+00  0.000E+00  0.000E+00  3.18744E+01  5.411E-01  2.000E+01  2.000E+04 -2.096E+00
   1   18   30     3     9    1.2512E+06 -3.9248E+04   1.2904E+06  0.000E+00  0.000E+00  0.000E+00  3.09962E+01  5.518E-01  2.000E+01  2.000E+04 -1.962E+00



1
              HEAD IN LAYER   1 AT END OF TIME STEP   1 IN STRESS PERIOD    7
  ---------------------------------------------------------------------------

          1      2      3      4      5      6      7      8      9     10
         11     12     13     14     15     16     17     18     19     20
         21     22     23     24     25     26     27     28     29     30
 .........................................................................
   1  ****** ****** ****** ****** ****** ****** ****** ****** ****** ******
      ****** ****** ****** ****** ****** ****** ****** ****** ****** ******
      ****** ****** ****** ****** ****** ****** ****** ****** ****** ******
   2  ****** ****** ****** ****** ****** ****** ****** ****** ****** ******
      ****** ****** ****** ****** ****** ****** ****** ****** ****** ******
      ****** ****** ****** ****** ****** ****** ****** ****** ****** ******
   3  ****** ****** ****** ****** ****** ****** ****** ****** ****** ******
      ****** ****** ****** ****** ****** ****** ****** ****** ****** ******
      ****** ****** ****** ****** ****** ****** ****** ****** ****** ******
   4  ****** ****** ****** ****** ****** ****** ****** ****** ****** ******
      ****** ****** ****** ****** ****** ****** ****** ****** ****** ******
      ****** ****** ****** ****** ****** ****** ****** ****** ****** ******
   5  ****** ****** ****** ****** ****** ****** ****** ****** ****** ******
      ****** ****** ****** ****** ****** ****** ****** ****** ****** ******
      ****** ****** ****** ****** ****** ****** ****** ****** ****** ******
   6  ****** ****** ****** ****** ****** ****** ****** ****** ****** ******
      ****** ****** ****** ****** ****** ****** ****** ****** ****** ******
      ****** ****** ****** ****** ****** ****** ****** ****** ****** ******
   7  ****** ****** ****** ****** ****** ****** ****** ****** ****** ******
      ****** ****** ****** ****** ****** ****** ****** ****** ****** ******
      ****** ****** ****** ****** ****** ****** ****** ****** ****** ******
   8  ****** ****** ****** ****** ****** ****** ****** ****** ****** ******
      ****** ****** ****** ****** ****** ****** ****** ****** ****** ******
      ****** ****** ****** ****** ****** ****** ****** ****** ****** ******
   9  ****** ****** ****** ****** ****** ****** ****** ****** ****** ******
      ****** ****** ****** ****** ****** ****** ****** ****** ****** ******
      ****** ****** ****** ****** ****** ****** ****** ****** ****** ******
  10  ****** ****** ****** ****** ****** ****** ****** ****** ****** ******
      ****** ****** ****** ****** ****** ****** ****** ****** ****** ******
      ****** ****** ****** ****** ****** ****** ****** ****** ****** ******
  11  ****** ****** ****** ****** ****** ****** ****** ****** ****** ******
      ****** ****** ****** ****** ****** ****** ****** ****** ****** ******
      ****** ****** ****** ****** ****** ****** ****** ****** ****** ******
  12  ****** ****** ****** ****** ****** ****** ****** ****** ****** ******
      ****** ****** ****** ****** ****** ****** ****** ****** ****** ******
      ****** ****** ****** ****** ****** ****** ****** ****** ****** ******
  13  ****** ****** ****** ****** ****** ****** ****** ****** ****** ******
      ****** ****** ****** ****** ****** ****** ****** ****** ****** ******
      ****** ****** ****** ****** ****** ****** ****** ****** ****** ******
  14  ****** ****** ****** ****** ****** ****** ****** ****** ****** ******
      ****** ****** ****** ****** ****** ****** ****** ****** ****** ******
      ****** ****** ****** ****** ****** ****** ****** ****** ****** ******
  15  ****** ****** ****** ****** ****** ****** ****** ****** ****** ******
      ****** ****** ****** ****** ****** ****** ****** ****** ****** ******
      ****** ****** ****** ****** ****** ****** ****** ****** ****** ******
  16  ****** ****** ****** ****** ****** ****** ****** ****** ****** ******
      ****** ****** ****** ****** ****** ****** ****** ****** ****** ******
      ****** ****** ****** ****** ****** ****** ****** ****** ****** ******
  17  ****** ****** ****** ****** ****** ****** ****** ****** ****** ******
      ****** ****** ****** ****** ****** ****** ****** ****** ****** ******
      ****** ****** ****** ****** ****** ****** ****** ****** ****** ******
  18  ****** ****** ****** ****** ****** ****** ****** ****** ****** ******
      ****** ****** ****** ****** ****** ****** ****** ****** ****** ******
      ****** ****** ****** ****** ****** ****** ****** ****** ****** ******
  19  ****** ****** ****** ****** ****** ****** ****** ****** ****** ******
      ****** ****** ****** ****** ****** ****** ****** ****** ****** ******
      ****** ****** ****** ****** ****** ****** ****** ****** ****** ******
  20  ****** ****** ****** ****** ****** ****** ****** ****** ****** ******
      ****** ****** ****** ****** ****** ****** ****** ****** ****** ******
      ****** ****** ****** ****** ****** ****** ****** ****** ****** ******
  21  ****** ****** ****** ****** ****** ****** ****** ****** ****** ******
      ****** ****** ****** ****** ****** ****** ****** ****** ****** ******
      ****** ****** ****** ****** ****** ****** ****** ****** ****** ******
  22  ****** ****** ****** ****** ****** ****** ****** ****** ****** ******
      ****** ****** ****** ****** ****** ****** ****** ****** ****** ******
      ****** ****** ****** ****** ****** ****** ****** ****** ****** ******
  23  ****** ****** ****** ****** ****** ****** ****** ****** ****** ******
      ****** ****** ****** ****** ****** ****** ****** ****** ****** ******
      ****** ****** ****** ****** ****** ****** ****** ****** ****** ******
  24  ****** ****** ****** ****** ****** ****** ****** ****** ****** ******
      ****** ****** ****** ****** ****** ****** ****** ****** ****** ******
      ****** ****** ****** ****** ****** ****** ****** ****** ****** ******
  25  ****** ****** ****** ****** ****** ****** ****** ****** ****** ******
      ****** ****** ****** ****** ****** ****** ****** ****** ****** ******
      ****** ****** ****** ****** ****** ****** ****** ****** ****** ******

 HEAD WILL BE SAVED ON UNIT   51 AT END OF TIME STEP    1, STRESS PERIOD    7
1
  VOLUMETRIC BUDGET FOR ENTIRE MODEL AT END OF TIME STEP    1, STRESS PERIOD   7
  ------------------------------------------------------------------------------

     CUMULATIVE VOLUMES      L**3       RATES FOR THIS TIME STEP      L**3/T
     ------------------                 ------------------------

           IN:                                      IN:
           ---                                      ---
             STORAGE =    20428865.8584               STORAGE =        3297.1159
       CONSTANT HEAD =   772128336.6480         CONSTANT HEAD =     1267119.8713
               WELLS =           0.0000                 WELLS =           0.0000
            RECHARGE =    15097200.0000              RECHARGE =           0.0000
      STREAM LEAKAGE =           0.0000        STREAM LEAKAGE =           0.0000

            TOTAL IN =   807654402.5064              TOTAL IN =     1270416.9872

          OUT:                                     OUT:
          ----                                     ----
             STORAGE =      362976.8346               STORAGE =           0.0000
       CONSTANT HEAD =           0.0000         CONSTANT HEAD =           0.0000
               WELLS =    53860274.0000                 WELLS =      130000.0000
            RECHARGE =           0.0000              RECHARGE =           0.0000
      STREAM LEAKAGE =   753431162.8845        STREAM LEAKAGE =     1140417.0331

           TOTAL OUT =   807654413.7191             TOTAL OUT =     1270417.0331

            IN - OUT =         -11.2127              IN - OUT =      -4.5893E-02

 PERCENT DISCREPANCY =          -0.00     PERCENT DISCREPANCY =          -0.00






         TIME SUMMARY AT END OF TIME STEP    1 IN STRESS PERIOD    7
                    SECONDS     MINUTES      HOURS       DAYS        YEARS
                    -----------------------------------------------------------
   TIME STEP LENGTH 7.86240E+06 1.31040E+05  2184.0      91.000     0.24914    
 STRESS PERIOD TIME 7.86240E+06 1.31040E+05  2184.0      91.000     0.24914    
         TOTAL TIME 5.52096E+07 9.20160E+05  15336.      639.00      1.7495    
1
1
                            STRESS PERIOD NO.    8, LENGTH =   91.00000    
                            -----------------------------------------------

                              NUMBER OF TIME STEPS =     1

                               MULTIPLIER FOR DELT =     1.500

                            INITIAL TIME STEP SIZE =   91.00000    

 WELL NO.  LAYER   ROW   COL   STRESS RATE         
 --------------------------------------------------
      1      1     22     29     -0.3000E+05
      2      1     24     24       0.000    
      3      1     24     27     -0.5000E+05

      3 WELLS

                 RECHARGE =  1.000000E-03

 REUSING STREAM SEGMENT DATA FROM LAST STRESS PERIOD
 
 SOLVING FOR HEAD 


     6 CALLS TO PCG ROUTINE FOR TIME STEP   1 IN STRESS PERIOD    8
    22 TOTAL ITERATIONS

 OUTPUT CONTROL FOR STRESS PERIOD    8   TIME STEP    1
    SAVE BUDGET
    SAVE HEAD FOR ALL LAYERS
    PRINT HEAD FOR ALL LAYERS
 UBDSV2 SAVING "STREAMFLOW OUT  " ON UNIT  50 AT TIME STEP  1, STRESS PERIOD   8



 STREAM LISTING     PERIOD      8   STEP        1

 LAYER ROW COL. STREAM  RCH.  FLOW INTO     FLOW TO   FLOW OUT OF   OVRLND.     DIRECT     STREAM       STREAM     STREAM     STREAM   STREAMBED  STREAMBED
                SEG.NO.  NO.  STRM. RCH.    AQUIFER    STRM. RCH.    RUNOFF     PRECIP       ET          HEAD       DEPTH      WIDTH   CONDCTNC.   GRADIENT

   1   13    1     1     1    1.0000E+05 -2.7909E+04   1.2791E+05  0.000E+00  0.000E+00  0.000E+00  4.84178E+01  1.564E-01  2.000E+01  2.000E+04 -1.395E+00
   1   13    2     1     2    1.2791E+05 -3.7670E+04   1.6558E+05  0.000E+00  0.000E+00  0.000E+00  4.79662E+01  1.821E-01  2.000E+01  2.000E+04 -1.883E+00
   1   14    3     1     3    1.6558E+05 -3.3146E+04   1.9873E+05  0.000E+00  0.000E+00  0.000E+00  4.75141E+01  2.073E-01  2.000E+01  2.000E+04 -1.657E+00
   1   15    4     1     4    1.9873E+05 -3.2380E+04   2.3111E+05  0.000E+00  0.000E+00  0.000E+00  4.70585E+01  2.289E-01  2.000E+01  2.000E+04 -1.619E+00
   1   16    5     1     5    2.3111E+05 -3.3892E+04   2.6500E+05  0.000E+00  0.000E+00  0.000E+00  4.66018E+01  2.495E-01  2.000E+01  2.000E+04 -1.695E+00
   1   16    6     1     6    2.6500E+05 -2.9620E+04   2.9462E+05  0.000E+00  0.000E+00  0.000E+00  4.61432E+01  2.682E-01  2.000E+01  2.000E+04 -1.481E+00
   1   16    7     1     7    2.9462E+05 -2.9451E+04   3.2407E+05  0.000E+00  0.000E+00  0.000E+00  4.56826E+01  2.848E-01  2.000E+01  2.000E+04 -1.473E+00
   1   16    8     1     8    3.2407E+05 -2.9645E+04   3.5371E+05  0.000E+00  0.000E+00  0.000E+00  4.52213E+01  3.009E-01  2.000E+01  2.000E+04 -1.482E+00
   1   16    9     1     9    3.5371E+05 -2.9738E+04   3.8345E+05  0.000E+00  0.000E+00  0.000E+00  4.47596E+01  3.164E-01  2.000E+01  2.000E+04 -1.487E+00
   1   16   10     1    10    3.8345E+05 -2.9778E+04   4.1323E+05  0.000E+00  0.000E+00  0.000E+00  4.42974E+01  3.315E-01  2.000E+01  2.000E+04 -1.489E+00
   1   16   11     1    11    4.1323E+05 -3.0396E+04   4.4363E+05  0.000E+00  0.000E+00  0.000E+00  4.38349E+01  3.463E-01  2.000E+01  2.000E+04 -1.520E+00
   1   16   12     1    12    4.4363E+05 -3.5935E+04   4.7956E+05  0.000E+00  0.000E+00  0.000E+00  4.33735E+01  3.621E-01  2.000E+01  2.000E+04 -1.797E+00
   1   15   13     1    13    4.7956E+05 -3.4690E+04   5.1425E+05  0.000E+00  0.000E+00  0.000E+00  4.29126E+01  3.785E-01  2.000E+01  2.000E+04 -1.734E+00
   1   14   14     1    14    5.1425E+05 -3.5286E+04   5.4954E+05  0.000E+00  0.000E+00  0.000E+00  4.24511E+01  3.943E-01  2.000E+01  2.000E+04 -1.764E+00
   1   13   15     1    15    5.4954E+05 -3.7517E+04   5.8705E+05  0.000E+00  0.000E+00  0.000E+00  4.19898E+01  4.103E-01  2.000E+01  2.000E+04 -1.876E+00
   1   12   16     1    16    5.8705E+05 -4.3579E+04   6.3063E+05  0.000E+00  0.000E+00  0.000E+00  4.15299E+01  4.276E-01  2.000E+01  2.000E+04 -2.179E+00
   1   12   17     1    17    6.3063E+05 -3.4085E+04   6.6472E+05  0.000E+00  0.000E+00  0.000E+00  4.10688E+01  4.438E-01  2.000E+01  2.000E+04 -1.704E+00
   1   12   18     1    18    6.6472E+05 -3.2458E+04   6.9718E+05  0.000E+00  0.000E+00  0.000E+00  4.06050E+01  4.573E-01  2.000E+01  2.000E+04 -1.623E+00
   1   12   19     1    19    6.9718E+05 -3.6545E+04   7.3372E+05  0.000E+00  0.000E+00  0.000E+00  4.01415E+01  4.711E-01  2.000E+01  2.000E+04 -1.827E+00
   1   13   20     1    20    7.3372E+05 -2.6774E+04   7.6050E+05  0.000E+00  0.000E+00  0.000E+00  3.96766E+01  4.835E-01  2.000E+01  2.000E+04 -1.339E+00
   1   14   21     1    21    7.6050E+05 -1.9558E+04   7.8005E+05  0.000E+00  0.000E+00  0.000E+00  3.92083E+01  4.924E-01  2.000E+01  2.000E+04 -9.779E-01
   1   14   22     1    22    7.8005E+05 -1.6640E+03   7.8172E+05  0.000E+00  0.000E+00  0.000E+00  3.87351E+01  4.965E-01  2.000E+01  2.000E+04 -8.320E-02
   1    9   30     2     1    5.0000E+04 -2.6586E+04   7.6586E+04  0.000E+00  0.000E+00  0.000E+00  4.02585E+01  1.335E-01  2.000E+01  2.000E+04 -1.329E+00
   1    9   29     2     2    7.6586E+04 -2.9057E+04   1.0564E+05  0.000E+00  0.000E+00  0.000E+00  4.00411E+01  1.661E-01  2.000E+01  2.000E+04 -1.453E+00
   1    9   28     2     3    1.0564E+05 -3.3356E+04   1.3900E+05  0.000E+00  0.000E+00  0.000E+00  3.98232E+01  1.982E-01  2.000E+01  2.000E+04 -1.668E+00
   1    9   27     2     4    1.3900E+05 -4.7513E+04   1.8651E+05  0.000E+00  0.000E+00  0.000E+00  3.96102E+01  2.352E-01  2.000E+01  2.000E+04 -2.376E+00
   1   10   26     2     5    1.8651E+05 -3.3476E+04   2.1999E+05  0.000E+00  0.000E+00  0.000E+00  3.93938E+01  2.688E-01  2.000E+01  2.000E+04 -1.674E+00
   1   11   25     2     6    2.1999E+05 -2.5124E+04   2.4511E+05  0.000E+00  0.000E+00  0.000E+00  3.91664E+01  2.914E-01  2.000E+01  2.000E+04 -1.256E+00
   1   12   24     2     7    2.4511E+05 -1.8547E+04   2.6366E+05  0.000E+00  0.000E+00  0.000E+00  3.89325E+01  3.075E-01  2.000E+01  2.000E+04 -9.274E-01
   1   13   23     2     8    2.6366E+05 -1.3174E+04   2.7683E+05  0.000E+00  0.000E+00  0.000E+00  3.86939E+01  3.189E-01  2.000E+01  2.000E+04 -6.587E-01
   1   14   22     2     9    2.7683E+05 -7.3439E+03   2.8418E+05  0.000E+00  0.000E+00  0.000E+00  3.84511E+01  3.261E-01  2.000E+01  2.000E+04 -3.672E-01
   1   14   22     3     1    1.0659E+06 -1.5282E+04   1.0812E+06  0.000E+00  0.000E+00  0.000E+00  3.80542E+01  4.986E-01  2.000E+01  2.000E+04 -7.641E-01
   1   15   23     3     2    1.0812E+06 -2.3178E+04   1.1044E+06  0.000E+00  0.000E+00  0.000E+00  3.71707E+01  5.040E-01  2.000E+01  2.000E+04 -1.159E+00
   1   15   24     3     3    1.1044E+06 -1.9207E+04   1.1236E+06  0.000E+00  0.000E+00  0.000E+00  3.62876E+01  5.098E-01  2.000E+01  2.000E+04 -9.604E-01
   1   15   25     3     4    1.1236E+06 -1.8767E+04   1.1423E+06  0.000E+00  0.000E+00  0.000E+00  3.54039E+01  5.150E-01  2.000E+01  2.000E+04 -9.383E-01
   1   15   26     3     5    1.1423E+06 -2.1493E+04   1.1638E+06  0.000E+00  0.000E+00  0.000E+00  3.45205E+01  5.205E-01  2.000E+01  2.000E+04 -1.075E+00
   1   16   27     3     6    1.1638E+06 -2.7925E+04   1.1917E+06  0.000E+00  0.000E+00  0.000E+00  3.36383E+01  5.272E-01  2.000E+01  2.000E+04 -1.396E+00
   1   17   28     3     7    1.1917E+06 -3.3909E+04   1.2257E+06  0.000E+00  0.000E+00  0.000E+00  3.27576E+01  5.354E-01  2.000E+01  2.000E+04 -1.695E+00
   1   18   29     3     8    1.2257E+06 -4.2851E+04   1.2685E+06  0.000E+00  0.000E+00  0.000E+00  3.18789E+01  5.456E-01  2.000E+01  2.000E+04 -2.143E+00
   1   18   30     3     9    1.2685E+06 -3.9928E+04   1.3084E+06  0.000E+00  0.000E+00  0.000E+00  3.10008E+01  5.563E-01  2.000E+01  2.000E+04 -1.996E+00



1
              HEAD IN LAYER   1 AT END OF TIME STEP   1 IN STRESS PERIOD    8
  ---------------------------------------------------------------------------

          1      2      3      4      5      6      7      8      9     10
         11     12     13     14     15     16     17     18     19     20
         21     22     23     24     25     26     27     28     29     30
 .........................................................................
   1  ****** ****** ****** ****** ****** ****** ****** ****** ****** ******
      ****** ****** ****** ****** ****** ****** ****** ****** ****** ******
      ****** ****** ****** ****** ****** ****** ****** ****** ****** ******
   2  ****** ****** ****** ****** ****** ****** ****** ****** ****** ******
      ****** ****** ****** ****** ****** ****** ****** ****** ****** ******
      ****** ****** ****** ****** ****** ****** ****** ****** ****** ******
   3  ****** ****** ****** ****** ****** ****** ****** ****** ****** ******
      ****** ****** ****** ****** ****** ****** ****** ****** ****** ******
      ****** ****** ****** ****** ****** ****** ****** ****** ****** ******
   4  ****** ****** ****** ****** ****** ****** ****** ****** ****** ******
      ****** ****** ****** ****** ****** ****** ****** ****** ****** ******
      ****** ****** ****** ****** ****** ****** ****** ****** ****** ******
   5  ****** ****** ****** ****** ****** ****** ****** ****** ****** ******
      ****** ****** ****** ****** ****** ****** ****** ****** ****** ******
      ****** ****** ****** ****** ****** ****** ****** ****** ****** ******
   6  ****** ****** ****** ****** ****** ****** ****** ****** ****** ******
      ****** ****** ****** ****** ****** ****** ****** ****** ****** ******
      ****** ****** ****** ****** ****** ****** ****** ****** ****** ******
   7  ****** ****** ****** ****** ****** ****** ****** ****** ****** ******
      ****** ****** ****** ****** ****** ****** ****** ****** ****** ******
      ****** ****** ****** ****** ****** ****** ****** ****** ****** ******
   8  ****** ****** ****** ****** ****** ****** ****** ****** ****** ******
      ****** ****** ****** ****** ****** ****** ****** ****** ****** ******
      ****** ****** ****** ****** ****** ****** ****** ****** ****** ******
   9  ****** ****** ****** ****** ****** ****** ****** ****** ****** ******
      ****** ****** ****** ****** ****** ****** ****** ****** ****** ******
      ****** ****** ****** ****** ****** ****** ****** ****** ****** ******
  10  ****** ****** ****** ****** ****** ****** ****** ****** ****** ******
      ****** ****** ****** ****** ****** ****** ****** ****** ****** ******
      ****** ****** ****** ****** ****** ****** ****** ****** ****** ******
  11  ****** ****** ****** ****** ****** ****** ****** ****** ****** ******
      ****** ****** ****** ****** ****** ****** ****** ****** ****** ******
      ****** ****** ****** ****** ****** ****** ****** ****** ****** ******
  12  ****** ****** ****** ****** ****** ****** ****** ****** ****** ******
      ****** ****** ****** ****** ****** ****** ****** ****** ****** ******
      ****** ****** ****** ****** ****** ****** ****** ****** ****** ******
  13  ****** ****** ****** ****** ****** ****** ****** ****** ****** ******
      ****** ****** ****** ****** ****** ****** ****** ****** ****** ******
      ****** ****** ****** ****** ****** ****** ****** ****** ****** ******
  14  ****** ****** ****** ****** ****** ****** ****** ****** ****** ******
      ****** ****** ****** ****** ****** ****** ****** ****** ****** ******
      ****** ****** ****** ****** ****** ****** ****** ****** ****** ******
  15  ****** ****** ****** ****** ****** ****** ****** ****** ****** ******
      ****** ****** ****** ****** ****** ****** ****** ****** ****** ******
      ****** ****** ****** ****** ****** ****** ****** ****** ****** ******
  16  ****** ****** ****** ****** ****** ****** ****** ****** ****** ******
      ****** ****** ****** ****** ****** ****** ****** ****** ****** ******
      ****** ****** ****** ****** ****** ****** ****** ****** ****** ******
  17  ****** ****** ****** ****** ****** ****** ****** ****** ****** ******
      ****** ****** ****** ****** ****** ****** ****** ****** ****** ******
      ****** ****** ****** ****** ****** ****** ****** ****** ****** ******
  18  ****** ****** ****** ****** ****** ****** ****** ****** ****** ******
      ****** ****** ****** ****** ****** ****** ****** ****** ****** ******
      ****** ****** ****** ****** ****** ****** ****** ****** ****** ******
  19  ****** ****** ****** ****** ****** ****** ****** ****** ****** ******
      ****** ****** ****** ****** ****** ****** ****** ****** ****** ******
      ****** ****** ****** ****** ****** ****** ****** ****** ****** ******
  20  ****** ****** ****** ****** ****** ****** ****** ****** ****** ******
      ****** ****** ****** ****** ****** ****** ****** ****** ****** ******
      ****** ****** ****** ****** ****** ****** ****** ****** ****** ******
  21  ****** ****** ****** ****** ****** ****** ****** ****** ****** ******
      ****** ****** ****** ****** ****** ****** ****** ****** ****** ******
      ****** ****** ****** ****** ****** ****** ****** ****** ****** ******
  22  ****** ****** ****** ****** ****** ****** ****** ****** ****** ******
      ****** ****** ****** ****** ****** ****** ****** ****** ****** ******
      ****** ****** ****** ****** ****** ****** ****** ****** ****** ******
  23  ****** ****** ****** ****** ****** ****** ****** ****** ****** ******
      ****** ****** ****** ****** ****** ****** ****** ****** ****** ******
      ****** ****** ****** ****** ****** ****** ****** ****** ****** ******
  24  ****** ****** ****** ****** ****** ****** ****** ****** ****** ******
      ****** ****** ****** ****** ****** ****** ****** ****** ****** ******
      ****** ****** ****** ****** ****** ****** ****** ****** ****** ******
  25  ****** ****** ****** ****** ****** ****** ****** ****** ****** ******
      ****** ****** ****** ****** ****** ****** ****** ****** ****** ******
      ****** ****** ****** ****** ****** ****** ****** ****** ****** ******

 HEAD WILL BE SAVED ON UNIT   51 AT END OF TIME STEP    1, STRESS PERIOD    8
1
  VOLUMETRIC BUDGET FOR ENTIRE MODEL AT END OF TIME STEP    1, STRESS PERIOD   8
  ------------------------------------------------------------------------------

     CUMULATIVE VOLUMES      L**3       RATES FOR THIS TIME STEP      L**3/T
     ------------------                 ------------------------

           IN:                                      IN:
           ---                                      ---
             STORAGE =    20428865.8584               STORAGE =           0.0000
       CONSTANT HEAD =   882504783.6915         CONSTANT HEAD =     1212927.9895
               WELLS =           0.0000                 WELLS =           0.0000
            RECHARGE =    17608800.0000              RECHARGE =       27600.0000
      STREAM LEAKAGE =           0.0000        STREAM LEAKAGE =           0.0000

            TOTAL IN =   920542449.5500              TOTAL IN =     1240527.9895

          OUT:                                     OUT:
          ----                                     ----
             STORAGE =      553314.1677               STORAGE =        2091.6190
       CONSTANT HEAD =           0.0000         CONSTANT HEAD =           0.0000
               WELLS =    61140274.0000                 WELLS =       80000.0000
            RECHARGE =           0.0000              RECHARGE =           0.0000
      STREAM LEAKAGE =   858848870.1162        STREAM LEAKAGE =     1158436.3432

           TOTAL OUT =   920542458.2839             TOTAL OUT =     1240527.9623

            IN - OUT =          -8.7339              IN - OUT =       2.7240E-02

 PERCENT DISCREPANCY =          -0.00     PERCENT DISCREPANCY =           0.00






         TIME SUMMARY AT END OF TIME STEP    1 IN STRESS PERIOD    8
                    SECONDS     MINUTES      HOURS       DAYS        YEARS
                    -----------------------------------------------------------
   TIME STEP LENGTH 7.86240E+06 1.31040E+05  2184.0      91.000     0.24914    
 STRESS PERIOD TIME 7.86240E+06 1.31040E+05  2184.0      91.000     0.24914    
         TOTAL TIME 6.30720E+07 1.05120E+06  17520.      730.00      1.9986    
1
1
                            STRESS PERIOD NO.    9, LENGTH =   92.00000    
                            -----------------------------------------------

                              NUMBER OF TIME STEPS =     1

                               MULTIPLIER FOR DELT =     1.500

                            INITIAL TIME STEP SIZE =   92.00000    

 WELL NO.  LAYER   ROW   COL   STRESS RATE         
 --------------------------------------------------
      1      1     22     29     -0.3000E+05
      2      1     24     24     -0.5000E+05
      3      1     24     27     -0.5000E+05

      3 WELLS

                 RECHARGE =  5.000000E-04

 REUSING STREAM SEGMENT DATA FROM LAST STRESS PERIOD
 
 SOLVING FOR HEAD 


     6 CALLS TO PCG ROUTINE FOR TIME STEP   1 IN STRESS PERIOD    9
    22 TOTAL ITERATIONS

 OUTPUT CONTROL FOR STRESS PERIOD    9   TIME STEP    1
    SAVE BUDGET
    SAVE HEAD FOR ALL LAYERS
    PRINT HEAD FOR ALL LAYERS
 UBDSV2 SAVING "STREAMFLOW OUT  " ON UNIT  50 AT TIME STEP  1, STRESS PERIOD   9



 STREAM LISTING     PERIOD      9   STEP        1

 LAYER ROW COL. STREAM  RCH.  FLOW INTO     FLOW TO   FLOW OUT OF   OVRLND.     DIRECT     STREAM       STREAM     STREAM     STREAM   STREAMBED  STREAMBED
                SEG.NO.  NO.  STRM. RCH.    AQUIFER    STRM. RCH.    RUNOFF     PRECIP       ET          HEAD       DEPTH      WIDTH   CONDCTNC.   GRADIENT

   1   13    1     1     1    1.0000E+05 -2.7710E+04   1.2771E+05  0.000E+00  0.000E+00  0.000E+00  4.84177E+01  1.564E-01  2.000E+01  2.000E+04 -1.385E+00
   1   13    2     1     2    1.2771E+05 -3.7432E+04   1.6514E+05  0.000E+00  0.000E+00  0.000E+00  4.79659E+01  1.818E-01  2.000E+01  2.000E+04 -1.872E+00
   1   14    3     1     3    1.6514E+05 -3.2911E+04   1.9805E+05  0.000E+00  0.000E+00  0.000E+00  4.75137E+01  2.069E-01  2.000E+01  2.000E+04 -1.646E+00
   1   15    4     1     4    1.9805E+05 -3.2152E+04   2.3020E+05  0.000E+00  0.000E+00  0.000E+00  4.70580E+01  2.284E-01  2.000E+01  2.000E+04 -1.608E+00
   1   16    5     1     5    2.3020E+05 -3.3682E+04   2.6389E+05  0.000E+00  0.000E+00  0.000E+00  4.66012E+01  2.489E-01  2.000E+01  2.000E+04 -1.684E+00
   1   16    6     1     6    2.6389E+05 -2.9437E+04   2.9332E+05  0.000E+00  0.000E+00  0.000E+00  4.61425E+01  2.675E-01  2.000E+01  2.000E+04 -1.472E+00
   1   16    7     1     7    2.9332E+05 -2.9268E+04   3.2259E+05  0.000E+00  0.000E+00  0.000E+00  4.56818E+01  2.841E-01  2.000E+01  2.000E+04 -1.463E+00
   1   16    8     1     8    3.2259E+05 -2.9458E+04   3.5205E+05  0.000E+00  0.000E+00  0.000E+00  4.52205E+01  3.000E-01  2.000E+01  2.000E+04 -1.473E+00
   1   16    9     1     9    3.5205E+05 -2.9546E+04   3.8160E+05  0.000E+00  0.000E+00  0.000E+00  4.47587E+01  3.155E-01  2.000E+01  2.000E+04 -1.477E+00
   1   16   10     1    10    3.8160E+05 -2.9579E+04   4.1118E+05  0.000E+00  0.000E+00  0.000E+00  4.42964E+01  3.305E-01  2.000E+01  2.000E+04 -1.479E+00
   1   16   11     1    11    4.1118E+05 -3.0181E+04   4.4136E+05  0.000E+00  0.000E+00  0.000E+00  4.38339E+01  3.452E-01  2.000E+01  2.000E+04 -1.509E+00
   1   16   12     1    12    4.4136E+05 -3.5653E+04   4.7701E+05  0.000E+00  0.000E+00  0.000E+00  4.33724E+01  3.610E-01  2.000E+01  2.000E+04 -1.783E+00
   1   15   13     1    13    4.7701E+05 -3.4382E+04   5.1139E+05  0.000E+00  0.000E+00  0.000E+00  4.29114E+01  3.773E-01  2.000E+01  2.000E+04 -1.719E+00
   1   14   14     1    14    5.1139E+05 -3.4972E+04   5.4636E+05  0.000E+00  0.000E+00  0.000E+00  4.24498E+01  3.930E-01  2.000E+01  2.000E+04 -1.749E+00
   1   13   15     1    15    5.4636E+05 -3.7217E+04   5.8358E+05  0.000E+00  0.000E+00  0.000E+00  4.19884E+01  4.088E-01  2.000E+01  2.000E+04 -1.861E+00
   1   12   16     1    16    5.8358E+05 -4.3314E+04   6.2690E+05  0.000E+00  0.000E+00  0.000E+00  4.15283E+01  4.261E-01  2.000E+01  2.000E+04 -2.166E+00
   1   12   17     1    17    6.2690E+05 -3.3855E+04   6.6075E+05  0.000E+00  0.000E+00  0.000E+00  4.10672E+01  4.422E-01  2.000E+01  2.000E+04 -1.693E+00
   1   12   18     1    18    6.6075E+05 -3.2229E+04   6.9298E+05  0.000E+00  0.000E+00  0.000E+00  4.06034E+01  4.556E-01  2.000E+01  2.000E+04 -1.611E+00
   1   12   19     1    19    6.9298E+05 -3.6300E+04   7.2928E+05  0.000E+00  0.000E+00  0.000E+00  4.01398E+01  4.693E-01  2.000E+01  2.000E+04 -1.815E+00
   1   13   20     1    20    7.2928E+05 -2.6477E+04   7.5576E+05  0.000E+00  0.000E+00  0.000E+00  3.96749E+01  4.817E-01  2.000E+01  2.000E+04 -1.324E+00
   1   14   21     1    21    7.5576E+05 -1.9196E+04   7.7495E+05  0.000E+00  0.000E+00  0.000E+00  3.92064E+01  4.905E-01  2.000E+01  2.000E+04 -9.598E-01
   1   14   22     1    22    7.7495E+05 -1.5302E+03   7.7648E+05  0.000E+00  0.000E+00  0.000E+00  3.87331E+01  4.945E-01  2.000E+01  2.000E+04 -7.651E-02
   1    9   30     2     1    5.0000E+04 -2.6434E+04   7.6434E+04  0.000E+00  0.000E+00  0.000E+00  4.02584E+01  1.334E-01  2.000E+01  2.000E+04 -1.322E+00
   1    9   29     2     2    7.6434E+04 -2.8906E+04   1.0534E+05  0.000E+00  0.000E+00  0.000E+00  4.00408E+01  1.658E-01  2.000E+01  2.000E+04 -1.445E+00
   1    9   28     2     3    1.0534E+05 -3.3202E+04   1.3854E+05  0.000E+00  0.000E+00  0.000E+00  3.98228E+01  1.978E-01  2.000E+01  2.000E+04 -1.660E+00
   1    9   27     2     4    1.3854E+05 -4.7327E+04   1.8587E+05  0.000E+00  0.000E+00  0.000E+00  3.96098E+01  2.348E-01  2.000E+01  2.000E+04 -2.366E+00
   1   10   26     2     5    1.8587E+05 -3.3277E+04   2.1914E+05  0.000E+00  0.000E+00  0.000E+00  3.93932E+01  2.682E-01  2.000E+01  2.000E+04 -1.664E+00
   1   11   25     2     6    2.1914E+05 -2.4924E+04   2.4407E+05  0.000E+00  0.000E+00  0.000E+00  3.91657E+01  2.907E-01  2.000E+01  2.000E+04 -1.246E+00
   1   12   24     2     7    2.4407E+05 -1.8356E+04   2.6243E+05  0.000E+00  0.000E+00  0.000E+00  3.89317E+01  3.067E-01  2.000E+01  2.000E+04 -9.178E-01
   1   13   23     2     8    2.6243E+05 -1.2993E+04   2.7542E+05  0.000E+00  0.000E+00  0.000E+00  3.86929E+01  3.179E-01  2.000E+01  2.000E+04 -6.496E-01
   1   14   22     2     9    2.7542E+05 -7.1915E+03   2.8261E+05  0.000E+00  0.000E+00  0.000E+00  3.84500E+01  3.250E-01  2.000E+01  2.000E+04 -3.596E-01
   1   14   22     3     1    1.0591E+06 -1.5147E+04   1.0742E+06  0.000E+00  0.000E+00  0.000E+00  3.80523E+01  4.967E-01  2.000E+01  2.000E+04 -7.573E-01
   1   15   23     3     2    1.0742E+06 -2.2652E+04   1.0969E+06  0.000E+00  0.000E+00  0.000E+00  3.71687E+01  5.020E-01  2.000E+01  2.000E+04 -1.133E+00
   1   15   24     3     3    1.0969E+06 -1.8776E+04   1.1157E+06  0.000E+00  0.000E+00  0.000E+00  3.62855E+01  5.077E-01  2.000E+01  2.000E+04 -9.388E-01
   1   15   25     3     4    1.1157E+06 -1.8373E+04   1.1340E+06  0.000E+00  0.000E+00  0.000E+00  3.54017E+01  5.128E-01  2.000E+01  2.000E+04 -9.187E-01
   1   15   26     3     5    1.1340E+06 -2.1120E+04   1.1552E+06  0.000E+00  0.000E+00  0.000E+00  3.45182E+01  5.182E-01  2.000E+01  2.000E+04 -1.056E+00
   1   16   27     3     6    1.1552E+06 -2.7341E+04   1.1825E+06  0.000E+00  0.000E+00  0.000E+00  3.36359E+01  5.247E-01  2.000E+01  2.000E+04 -1.367E+00
   1   17   28     3     7    1.1825E+06 -3.3205E+04   1.2157E+06  0.000E+00  0.000E+00  0.000E+00  3.27551E+01  5.329E-01  2.000E+01  2.000E+04 -1.660E+00
   1   18   29     3     8    1.2157E+06 -4.2057E+04   1.2578E+06  0.000E+00  0.000E+00  0.000E+00  3.18762E+01  5.428E-01  2.000E+01  2.000E+04 -2.103E+00
   1   18   30     3     9    1.2578E+06 -3.9368E+04   1.2971E+06  0.000E+00  0.000E+00  0.000E+00  3.09979E+01  5.535E-01  2.000E+01  2.000E+04 -1.968E+00



1
              HEAD IN LAYER   1 AT END OF TIME STEP   1 IN STRESS PERIOD    9
  ---------------------------------------------------------------------------

          1      2      3      4      5      6      7      8      9     10
         11     12     13     14     15     16     17     18     19     20
         21     22     23     24     25     26     27     28     29     30
 .........................................................................
   1  ****** ****** ****** ****** ****** ****** ****** ****** ****** ******
      ****** ****** ****** ****** ****** ****** ****** ****** ****** ******
      ****** ****** ****** ****** ****** ****** ****** ****** ****** ******
   2  ****** ****** ****** ****** ****** ****** ****** ****** ****** ******
      ****** ****** ****** ****** ****** ****** ****** ****** ****** ******
      ****** ****** ****** ****** ****** ****** ****** ****** ****** ******
   3  ****** ****** ****** ****** ****** ****** ****** ****** ****** ******
      ****** ****** ****** ****** ****** ****** ****** ****** ****** ******
      ****** ****** ****** ****** ****** ****** ****** ****** ****** ******
   4  ****** ****** ****** ****** ****** ****** ****** ****** ****** ******
      ****** ****** ****** ****** ****** ****** ****** ****** ****** ******
      ****** ****** ****** ****** ****** ****** ****** ****** ****** ******
   5  ****** ****** ****** ****** ****** ****** ****** ****** ****** ******
      ****** ****** ****** ****** ****** ****** ****** ****** ****** ******
      ****** ****** ****** ****** ****** ****** ****** ****** ****** ******
   6  ****** ****** ****** ****** ****** ****** ****** ****** ****** ******
      ****** ****** ****** ****** ****** ****** ****** ****** ****** ******
      ****** ****** ****** ****** ****** ****** ****** ****** ****** ******
   7  ****** ****** ****** ****** ****** ****** ****** ****** ****** ******
      ****** ****** ****** ****** ****** ****** ****** ****** ****** ******
      ****** ****** ****** ****** ****** ****** ****** ****** ****** ******
   8  ****** ****** ****** ****** ****** ****** ****** ****** ****** ******
      ****** ****** ****** ****** ****** ****** ****** ****** ****** ******
      ****** ****** ****** ****** ****** ****** ****** ****** ****** ******
   9  ****** ****** ****** ****** ****** ****** ****** ****** ****** ******
      ****** ****** ****** ****** ****** ****** ****** ****** ****** ******
      ****** ****** ****** ****** ****** ****** ****** ****** ****** ******
  10  ****** ****** ****** ****** ****** ****** ****** ****** ****** ******
      ****** ****** ****** ****** ****** ****** ****** ****** ****** ******
      ****** ****** ****** ****** ****** ****** ****** ****** ****** ******
  11  ****** ****** ****** ****** ****** ****** ****** ****** ****** ******
      ****** ****** ****** ****** ****** ****** ****** ****** ****** ******
      ****** ****** ****** ****** ****** ****** ****** ****** ****** ******
  12  ****** ****** ****** ****** ****** ****** ****** ****** ****** ******
      ****** ****** ****** ****** ****** ****** ****** ****** ****** ******
      ****** ****** ****** ****** ****** ****** ****** ****** ****** ******
  13  ****** ****** ****** ****** ****** ****** ****** ****** ****** ******
      ****** ****** ****** ****** ****** ****** ****** ****** ****** ******
      ****** ****** ****** ****** ****** ****** ****** ****** ****** ******
  14  ****** ****** ****** ****** ****** ****** ****** ****** ****** ******
      ****** ****** ****** ****** ****** ****** ****** ****** ****** ******
      ****** ****** ****** ****** ****** ****** ****** ****** ****** ******
  15  ****** ****** ****** ****** ****** ****** ****** ****** ****** ******
      ****** ****** ****** ****** ****** ****** ****** ****** ****** ******
      ****** ****** ****** ****** ****** ****** ****** ****** ****** ******
  16  ****** ****** ****** ****** ****** ****** ****** ****** ****** ******
      ****** ****** ****** ****** ****** ****** ****** ****** ****** ******
      ****** ****** ****** ****** ****** ****** ****** ****** ****** ******
  17  ****** ****** ****** ****** ****** ****** ****** ****** ****** ******
      ****** ****** ****** ****** ****** ****** ****** ****** ****** ******
      ****** ****** ****** ****** ****** ****** ****** ****** ****** ******
  18  ****** ****** ****** ****** ****** ****** ****** ****** ****** ******
      ****** ****** ****** ****** ****** ****** ****** ****** ****** ******
      ****** ****** ****** ****** ****** ****** ****** ****** ****** ******
  19  ****** ****** ****** ****** ****** ****** ****** ****** ****** ******
      ****** ****** ****** ****** ****** ****** ****** ****** ****** ******
      ****** ****** ****** ****** ****** ****** ****** ****** ****** ******
  20  ****** ****** ****** ****** ****** ****** ****** ****** ****** ******
      ****** ****** ****** ****** ****** ****** ****** ****** ****** ******
      ****** ****** ****** ****** ****** ****** ****** ****** ****** ******
  21  ****** ****** ****** ****** ****** ****** ****** ****** ****** ******
      ****** ****** ****** ****** ****** ****** ****** ****** ****** ******
      ****** ****** ****** ****** ****** ****** ****** ****** ****** ******
  22  ****** ****** ****** ****** ****** ****** ****** ****** ****** ******
      ****** ****** ****** ****** ****** ****** ****** ****** ****** ******
      ****** ****** ****** ****** ****** ****** ****** ****** ****** ******
  23  ****** ****** ****** ****** ****** ****** ****** ****** ****** ******
      ****** ****** ****** ****** ****** ****** ****** ****** ****** ******
      ****** ****** ****** ****** ****** ****** ****** ****** ****** ******
  24  ****** ****** ****** ****** ****** ****** ****** ****** ****** ******
      ****** ****** ****** ****** ****** ****** ****** ****** ****** ******
      ****** ****** ****** ****** ****** ****** ****** ****** ****** ******
  25  ****** ****** ****** ****** ****** ****** ****** ****** ****** ******
      ****** ****** ****** ****** ****** ****** ****** ****** ****** ******
      ****** ****** ****** ****** ****** ****** ****** ****** ****** ******

 HEAD WILL BE SAVED ON UNIT   51 AT END OF TIME STEP    1, STRESS PERIOD    9
1
  VOLUMETRIC BUDGET FOR ENTIRE MODEL AT END OF TIME STEP    1, STRESS PERIOD   9
  ------------------------------------------------------------------------------

     CUMULATIVE VOLUMES      L**3       RATES FOR THIS TIME STEP      L**3/T
     ------------------                 ------------------------

           IN:                                      IN:
           ---                                      ---
             STORAGE =    20565796.5482               STORAGE =        1488.3771
       CONSTANT HEAD =   998594383.4213         CONSTANT HEAD =     1261843.4753
               WELLS =           0.0000                 WELLS =           0.0000
            RECHARGE =    18878400.0000              RECHARGE =       13800.0000
      STREAM LEAKAGE =           0.0000        STREAM LEAKAGE =           0.0000

            TOTAL IN =  1038038579.9695              TOTAL IN =     1277131.8524

          OUT:                                     OUT:
          ----                                     ----
             STORAGE =      553314.1677               STORAGE =           0.0000
       CONSTANT HEAD =           0.0000         CONSTANT HEAD =           0.0000
               WELLS =    73100274.0000                 WELLS =      130000.0000
            RECHARGE =           0.0000              RECHARGE =           0.0000
      STREAM LEAKAGE =   964385001.9026        STREAM LEAKAGE =     1147131.8672

           TOTAL OUT =  1038038590.0703             TOTAL OUT =     1277131.8672

            IN - OUT =         -10.1008              IN - OUT =      -1.4858E-02

 PERCENT DISCREPANCY =          -0.00     PERCENT DISCREPANCY =          -0.00






         TIME SUMMARY AT END OF TIME STEP    1 IN STRESS PERIOD    9
                    SECONDS     MINUTES      HOURS       DAYS        YEARS
                    -----------------------------------------------------------
   TIME STEP LENGTH 7.94880E+06 1.32480E+05  2208.0      92.000     0.25188    
 STRESS PERIOD TIME 7.94880E+06 1.32480E+05  2208.0      92.000     0.25188    
         TOTAL TIME 7.10208E+07 1.18368E+06  19728.      822.00      2.2505    
1
1
                            STRESS PERIOD NO.   10, LENGTH =   91.00000    
                            -----------------------------------------------

                              NUMBER OF TIME STEPS =     1

                               MULTIPLIER FOR DELT =     1.500

                            INITIAL TIME STEP SIZE =   91.00000    

 WELL NO.  LAYER   ROW   COL   STRESS RATE         
 --------------------------------------------------
      1      1     22     29     -0.3000E+05
      2      1     24     24     -0.5000E+05
      3      1     24     27     -0.5000E+05

      3 WELLS

                 RECHARGE =  2.000000E-03

 REUSING STREAM SEGMENT DATA FROM LAST STRESS PERIOD
 
 SOLVING FOR HEAD 


     6 CALLS TO PCG ROUTINE FOR TIME STEP   1 IN STRESS PERIOD   10
    22 TOTAL ITERATIONS

 OUTPUT CONTROL FOR STRESS PERIOD   10   TIME STEP    1
    SAVE BUDGET
    SAVE HEAD FOR ALL LAYERS
    PRINT HEAD FOR ALL LAYERS
 UBDSV2 SAVING "STREAMFLOW OUT  " ON UNIT  50 AT TIME STEP  1, STRESS PERIOD  10



 STREAM LISTING     PERIOD     10   STEP        1

 LAYER ROW COL. STREAM  RCH.  FLOW INTO     FLOW TO   FLOW OUT OF   OVRLND.     DIRECT     STREAM       STREAM     STREAM     STREAM   STREAMBED  STREAMBED
                SEG.NO.  NO.  STRM. RCH.    AQUIFER    STRM. RCH.    RUNOFF     PRECIP       ET          HEAD       DEPTH      WIDTH   CONDCTNC.   GRADIENT

   1   13    1     1     1    1.0000E+05 -2.8362E+04   1.2836E+05  0.000E+00  0.000E+00  0.000E+00  4.84180E+01  1.566E-01  2.000E+01  2.000E+04 -1.418E+00
   1   13    2     1     2    1.2836E+05 -3.8211E+04   1.6657E+05  0.000E+00  0.000E+00  0.000E+00  4.79667E+01  1.826E-01  2.000E+01  2.000E+04 -1.911E+00
   1   14    3     1     3    1.6657E+05 -3.3673E+04   2.0025E+05  0.000E+00  0.000E+00  0.000E+00  4.75150E+01  2.082E-01  2.000E+01  2.000E+04 -1.684E+00
   1   15    4     1     4    2.0025E+05 -3.2884E+04   2.3313E+05  0.000E+00  0.000E+00  0.000E+00  4.70596E+01  2.301E-01  2.000E+01  2.000E+04 -1.644E+00
   1   16    5     1     5    2.3313E+05 -3.4342E+04   2.6747E+05  0.000E+00  0.000E+00  0.000E+00  4.66031E+01  2.508E-01  2.000E+01  2.000E+04 -1.717E+00
   1   16    6     1     6    2.6747E+05 -3.0011E+04   2.9748E+05  0.000E+00  0.000E+00  0.000E+00  4.61447E+01  2.697E-01  2.000E+01  2.000E+04 -1.501E+00
   1   16    7     1     7    2.9748E+05 -2.9836E+04   3.2732E+05  0.000E+00  0.000E+00  0.000E+00  4.56842E+01  2.865E-01  2.000E+01  2.000E+04 -1.492E+00
   1   16    8     1     8    3.2732E+05 -3.0027E+04   3.5735E+05  0.000E+00  0.000E+00  0.000E+00  4.52231E+01  3.027E-01  2.000E+01  2.000E+04 -1.501E+00
   1   16    9     1     9    3.5735E+05 -3.0114E+04   3.8746E+05  0.000E+00  0.000E+00  0.000E+00  4.47616E+01  3.184E-01  2.000E+01  2.000E+04 -1.506E+00
   1   16   10     1    10    3.8746E+05 -3.0145E+04   4.1761E+05  0.000E+00  0.000E+00  0.000E+00  4.42995E+01  3.336E-01  2.000E+01  2.000E+04 -1.507E+00
   1   16   11     1    11    4.1761E+05 -3.0753E+04   4.4836E+05  0.000E+00  0.000E+00  0.000E+00  4.38371E+01  3.485E-01  2.000E+01  2.000E+04 -1.538E+00
   1   16   12     1    12    4.4836E+05 -3.6316E+04   4.8467E+05  0.000E+00  0.000E+00  0.000E+00  4.33758E+01  3.645E-01  2.000E+01  2.000E+04 -1.816E+00
   1   15   13     1    13    4.8467E+05 -3.5115E+04   5.1979E+05  0.000E+00  0.000E+00  0.000E+00  4.29150E+01  3.809E-01  2.000E+01  2.000E+04 -1.756E+00
   1   14   14     1    14    5.1979E+05 -3.5730E+04   5.5552E+05  0.000E+00  0.000E+00  0.000E+00  4.24537E+01  3.968E-01  2.000E+01  2.000E+04 -1.786E+00
   1   13   15     1    15    5.5552E+05 -3.7971E+04   5.9349E+05  0.000E+00  0.000E+00  0.000E+00  4.19925E+01  4.130E-01  2.000E+01  2.000E+04 -1.899E+00
   1   12   16     1    16    5.9349E+05 -4.4044E+04   6.3753E+05  0.000E+00  0.000E+00  0.000E+00  4.15327E+01  4.304E-01  2.000E+01  2.000E+04 -2.202E+00
   1   12   17     1    17    6.3753E+05 -3.4441E+04   6.7198E+05  0.000E+00  0.000E+00  0.000E+00  4.10717E+01  4.467E-01  2.000E+01  2.000E+04 -1.722E+00
   1   12   18     1    18    6.7198E+05 -3.2789E+04   7.0476E+05  0.000E+00  0.000E+00  0.000E+00  4.06080E+01  4.603E-01  2.000E+01  2.000E+04 -1.639E+00
   1   12   19     1    19    7.0476E+05 -3.6911E+04   7.4168E+05  0.000E+00  0.000E+00  0.000E+00  4.01446E+01  4.741E-01  2.000E+01  2.000E+04 -1.846E+00
   1   13   20     1    20    7.4168E+05 -2.7043E+04   7.6872E+05  0.000E+00  0.000E+00  0.000E+00  3.96798E+01  4.866E-01  2.000E+01  2.000E+04 -1.352E+00
   1   14   21     1    21    7.6872E+05 -1.9676E+04   7.8839E+05  0.000E+00  0.000E+00  0.000E+00  3.92115E+01  4.956E-01  2.000E+01  2.000E+04 -9.838E-01
   1   14   22     1    22    7.8839E+05 -1.6990E+03   7.9009E+05  0.000E+00  0.000E+00  0.000E+00  3.87383E+01  4.996E-01  2.000E+01  2.000E+04 -8.495E-02
   1    9   30     2     1    5.0000E+04 -2.6878E+04   7.6878E+04  0.000E+00  0.000E+00  0.000E+00  4.02587E+01  1.337E-01  2.000E+01  2.000E+04 -1.344E+00
   1    9   29     2     2    7.6878E+04 -2.9350E+04   1.0623E+05  0.000E+00  0.000E+00  0.000E+00  4.00416E+01  1.666E-01  2.000E+01  2.000E+04 -1.467E+00
   1    9   28     2     3    1.0623E+05 -3.3661E+04   1.3989E+05  0.000E+00  0.000E+00  0.000E+00  3.98239E+01  1.989E-01  2.000E+01  2.000E+04 -1.683E+00
   1    9   27     2     4    1.3989E+05 -4.7891E+04   1.8778E+05  0.000E+00  0.000E+00  0.000E+00  3.96112E+01  2.362E-01  2.000E+01  2.000E+04 -2.395E+00
   1   10   26     2     5    1.8778E+05 -3.3861E+04   2.2164E+05  0.000E+00  0.000E+00  0.000E+00  3.93949E+01  2.699E-01  2.000E+01  2.000E+04 -1.693E+00
   1   11   25     2     6    2.2164E+05 -2.5487E+04   2.4713E+05  0.000E+00  0.000E+00  0.000E+00  3.91678E+01  2.928E-01  2.000E+01  2.000E+04 -1.274E+00
   1   12   24     2     7    2.4713E+05 -1.8859E+04   2.6599E+05  0.000E+00  0.000E+00  0.000E+00  3.89341E+01  3.091E-01  2.000E+01  2.000E+04 -9.429E-01
   1   13   23     2     8    2.6599E+05 -1.3399E+04   2.7938E+05  0.000E+00  0.000E+00  0.000E+00  3.86956E+01  3.206E-01  2.000E+01  2.000E+04 -6.700E-01
   1   14   22     2     9    2.7938E+05 -7.4066E+03   2.8679E+05  0.000E+00  0.000E+00  0.000E+00  3.84529E+01  3.279E-01  2.000E+01  2.000E+04 -3.703E-01
   1   14   22     3     1    1.0769E+06 -1.5319E+04   1.0922E+06  0.000E+00  0.000E+00  0.000E+00  3.80573E+01  5.017E-01  2.000E+01  2.000E+04 -7.660E-01
   1   15   23     3     2    1.0922E+06 -2.3088E+04   1.1153E+06  0.000E+00  0.000E+00  0.000E+00  3.71737E+01  5.070E-01  2.000E+01  2.000E+04 -1.154E+00
   1   15   24     3     3    1.1153E+06 -1.9138E+04   1.1344E+06  0.000E+00  0.000E+00  0.000E+00  3.62906E+01  5.128E-01  2.000E+01  2.000E+04 -9.569E-01
   1   15   25     3     4    1.1344E+06 -1.8735E+04   1.1532E+06  0.000E+00  0.000E+00  0.000E+00  3.54069E+01  5.180E-01  2.000E+01  2.000E+04 -9.367E-01
   1   15   26     3     5    1.1532E+06 -2.1546E+04   1.1747E+06  0.000E+00  0.000E+00  0.000E+00  3.45234E+01  5.234E-01  2.000E+01  2.000E+04 -1.077E+00
   1   16   27     3     6    1.1747E+06 -2.7848E+04   1.2026E+06  0.000E+00  0.000E+00  0.000E+00  3.36412E+01  5.301E-01  2.000E+01  2.000E+04 -1.392E+00
   1   17   28     3     7    1.2026E+06 -3.3720E+04   1.2363E+06  0.000E+00  0.000E+00  0.000E+00  3.27605E+01  5.383E-01  2.000E+01  2.000E+04 -1.686E+00
   1   18   29     3     8    1.2363E+06 -4.2533E+04   1.2788E+06  0.000E+00  0.000E+00  0.000E+00  3.18816E+01  5.483E-01  2.000E+01  2.000E+04 -2.127E+00
   1   18   30     3     9    1.2788E+06 -3.9770E+04   1.3186E+06  0.000E+00  0.000E+00  0.000E+00  3.10034E+01  5.590E-01  2.000E+01  2.000E+04 -1.989E+00



1
              HEAD IN LAYER   1 AT END OF TIME STEP   1 IN STRESS PERIOD   10
  ---------------------------------------------------------------------------

          1      2      3      4      5      6      7      8      9     10
         11     12     13     14     15     16     17     18     19     20
         21     22     23     24     25     26     27     28     29     30
 .........................................................................
   1  ****** ****** ****** ****** ****** ****** ****** ****** ****** ******
      ****** ****** ****** ****** ****** ****** ****** ****** ****** ******
      ****** ****** ****** ****** ****** ****** ****** ****** ****** ******
   2  ****** ****** ****** ****** ****** ****** ****** ****** ****** ******
      ****** ****** ****** ****** ****** ****** ****** ****** ****** ******
      ****** ****** ****** ****** ****** ****** ****** ****** ****** ******
   3  ****** ****** ****** ****** ****** ****** ****** ****** ****** ******
      ****** ****** ****** ****** ****** ****** ****** ****** ****** ******
      ****** ****** ****** ****** ****** ****** ****** ****** ****** ******
   4  ****** ****** ****** ****** ****** ****** ****** ****** ****** ******
      ****** ****** ****** ****** ****** ****** ****** ****** ****** ******
      ****** ****** ****** ****** ****** ****** ****** ****** ****** ******
   5  ****** ****** ****** ****** ****** ****** ****** ****** ****** ******
      ****** ****** ****** ****** ****** ****** ****** ****** ****** ******
      ****** ****** ****** ****** ****** ****** ****** ****** ****** ******
   6  ****** ****** ****** ****** ****** ****** ****** ****** ****** ******
      ****** ****** ****** ****** ****** ****** ****** ****** ****** ******
      ****** ****** ****** ****** ****** ****** ****** ****** ****** ******
   7  ****** ****** ****** ****** ****** ****** ****** ****** ****** ******
      ****** ****** ****** ****** ****** ****** ****** ****** ****** ******
      ****** ****** ****** ****** ****** ****** ****** ****** ****** ******
   8  ****** ****** ****** ****** ****** ****** ****** ****** ****** ******
      ****** ****** ****** ****** ****** ****** ****** ****** ****** ******
      ****** ****** ****** ****** ****** ****** ****** ****** ****** ******
   9  ****** ****** ****** ****** ****** ****** ****** ****** ****** ******
      ****** ****** ****** ****** ****** ****** ****** ****** ****** ******
      ****** ****** ****** ****** ****** ****** ****** ****** ****** ******
  10  ****** ****** ****** ****** ****** ****** ****** ****** ****** ******
      ****** ****** ****** ****** ****** ****** ****** ****** ****** ******
      ****** ****** ****** ****** ****** ****** ****** ****** ****** ******
  11  ****** ****** ****** ****** ****** ****** ****** ****** ****** ******
      ****** ****** ****** ****** ****** ****** ****** ****** ****** ******
      ****** ****** ****** ****** ****** ****** ****** ****** ****** ******
  12  ****** ****** ****** ****** ****** ****** ****** ****** ****** ******
      ****** ****** ****** ****** ****** ****** ****** ****** ****** ******
      ****** ****** ****** ****** ****** ****** ****** ****** ****** ******
  13  ****** ****** ****** ****** ****** ****** ****** ****** ****** ******
      ****** ****** ****** ****** ****** ****** ****** ****** ****** ******
      ****** ****** ****** ****** ****** ****** ****** ****** ****** ******
  14  ****** ****** ****** ****** ****** ****** ****** ****** ****** ******
      ****** ****** ****** ****** ****** ****** ****** ****** ****** ******
      ****** ****** ****** ****** ****** ****** ****** ****** ****** ******
  15  ****** ****** ****** ****** ****** ****** ****** ****** ****** ******
      ****** ****** ****** ****** ****** ****** ****** ****** ****** ******
      ****** ****** ****** ****** ****** ****** ****** ****** ****** ******
  16  ****** ****** ****** ****** ****** ****** ****** ****** ****** ******
      ****** ****** ****** ****** ****** ****** ****** ****** ****** ******
      ****** ****** ****** ****** ****** ****** ****** ****** ****** ******
  17  ****** ****** ****** ****** ****** ****** ****** ****** ****** ******
      ****** ****** ****** ****** ****** ****** ****** ****** ****** ******
      ****** ****** ****** ****** ****** ****** ****** ****** ****** ******
  18  ****** ****** ****** ****** ****** ****** ****** ****** ****** ******
      ****** ****** ****** ****** ****** ****** ****** ****** ****** ******
      ****** ****** ****** ****** ****** ****** ****** ****** ****** ******
  19  ****** ****** ****** ****** ****** ****** ****** ****** ****** ******
      ****** ****** ****** ****** ****** ****** ****** ****** ****** ******
      ****** ****** ****** ****** ****** ****** ****** ****** ****** ******
  20  ****** ****** ****** ****** ****** ****** ****** ****** ****** ******
      ****** ****** ****** ****** ****** ****** ****** ****** ****** ******
      ****** ****** ****** ****** ****** ****** ****** ****** ****** ******
  21  ****** ****** ****** ****** ****** ****** ****** ****** ****** ******
      ****** ****** ****** ****** ****** ****** ****** ****** ****** ******
      ****** ****** ****** ****** ****** ****** ****** ****** ****** ******
  22  ****** ****** ****** ****** ****** ****** ****** ****** ****** ******
      ****** ****** ****** ****** ****** ****** ****** ****** ****** ******
      ****** ****** ****** ****** ****** ****** ****** ****** ****** ******
  23  ****** ****** ****** ****** ****** ****** ****** ****** ****** ******
      ****** ****** ****** ****** ****** ****** ****** ****** ****** ******
      ****** ****** ****** ****** ****** ****** ****** ****** ****** ******
  24  ****** ****** ****** ****** ****** ****** ****** ****** ****** ******
      ****** ****** ****** ****** ****** ****** ****** ****** ****** ******
      ****** ****** ****** ****** ****** ****** ****** ****** ****** ******
  25  ****** ****** ****** ****** ****** ****** ****** ****** ****** ******
      ****** ****** ****** ****** ****** ****** ****** ****** ****** ******
      ****** ****** ****** ****** ****** ****** ****** ****** ****** ******

 HEAD WILL BE SAVED ON UNIT   51 AT END OF TIME STEP    1, STRESS PERIOD   10
1
  VOLUMETRIC BUDGET FOR ENTIRE MODEL AT END OF TIME STEP    1, STRESS PERIOD  10
  ------------------------------------------------------------------------------

     CUMULATIVE VOLUMES      L**3       RATES FOR THIS TIME STEP      L**3/T
     ------------------                 ------------------------

           IN:                                      IN:
           ---                                      ---
             STORAGE =    20565796.5482               STORAGE =           0.0000
       CONSTANT HEAD =  1111915387.5255         CONSTANT HEAD =     1245285.7594
               WELLS =           0.0000                 WELLS =           0.0000
            RECHARGE =    23901600.0000              RECHARGE =       55200.0000
      STREAM LEAKAGE =           0.0000        STREAM LEAKAGE =           0.0000

            TOTAL IN =  1156382784.0738              TOTAL IN =     1300485.7594

          OUT:                                     OUT:
          ----                                     ----
             STORAGE =      726444.6460               STORAGE =        1902.5327
       CONSTANT HEAD =           0.0000         CONSTANT HEAD =           0.0000
               WELLS =    84930274.0000                 WELLS =      130000.0000
            RECHARGE =           0.0000              RECHARGE =           0.0000
      STREAM LEAKAGE =  1070726072.5632        STREAM LEAKAGE =     1168583.1941

           TOTAL OUT =  1156382791.2092             TOTAL OUT =     1300485.7268

            IN - OUT =          -7.1354              IN - OUT =       3.2587E-02

 PERCENT DISCREPANCY =          -0.00     PERCENT DISCREPANCY =           0.00






         TIME SUMMARY AT END OF TIME STEP    1 IN STRESS PERIOD   10
                    SECONDS     MINUTES      HOURS       DAYS        YEARS
                    -----------------------------------------------------------
   TIME STEP LENGTH 7.86240E+06 1.31040E+05  2184.0      91.000     0.24914    
 STRESS PERIOD TIME 7.86240E+06 1.31040E+05  2184.0      91.000     0.24914    
         TOTAL TIME 7.88832E+07 1.31472E+06  21912.      913.00      2.4997    
1
1
                            STRESS PERIOD NO.   11, LENGTH =   91.00000    
                            -----------------------------------------------

                              NUMBER OF TIME STEPS =     1

                               MULTIPLIER FOR DELT =     1.500

                            INITIAL TIME STEP SIZE =   91.00000    

 WELL NO.  LAYER   ROW   COL   STRESS RATE         
 --------------------------------------------------
      1      1     22     29     -0.3000E+05
      2      1     24     24     -0.5000E+05
      3      1     24     27     -0.5000E+05

      3 WELLS

                 RECHARGE =   0.00000    

 REUSING STREAM SEGMENT DATA FROM LAST STRESS PERIOD
 
 SOLVING FOR HEAD 


     6 CALLS TO PCG ROUTINE FOR TIME STEP   1 IN STRESS PERIOD   11
    22 TOTAL ITERATIONS

 OUTPUT CONTROL FOR STRESS PERIOD   11   TIME STEP    1
    SAVE BUDGET
    SAVE HEAD FOR ALL LAYERS
    PRINT HEAD FOR ALL LAYERS
 UBDSV2 SAVING "STREAMFLOW OUT  " ON UNIT  50 AT TIME STEP  1, STRESS PERIOD  11



 STREAM LISTING     PERIOD     11   STEP        1

 LAYER ROW COL. STREAM  RCH.  FLOW INTO     FLOW TO   FLOW OUT OF   OVRLND.     DIRECT     STREAM       STREAM     STREAM     STREAM   STREAMBED  STREAMBED
                SEG.NO.  NO.  STRM. RCH.    AQUIFER    STRM. RCH.    RUNOFF     PRECIP       ET          HEAD       DEPTH      WIDTH   CONDCTNC.   GRADIENT

   1   13    1     1     1    1.0000E+05 -2.7515E+04   1.2752E+05  0.000E+00  0.000E+00  0.000E+00  4.84176E+01  1.563E-01  2.000E+01  2.000E+04 -1.376E+00
   1   13    2     1     2    1.2752E+05 -3.7201E+04   1.6472E+05  0.000E+00  0.000E+00  0.000E+00  4.79657E+01  1.816E-01  2.000E+01  2.000E+04 -1.860E+00
   1   14    3     1     3    1.6472E+05 -3.2682E+04   1.9740E+05  0.000E+00  0.000E+00  0.000E+00  4.75134E+01  2.065E-01  2.000E+01  2.000E+04 -1.634E+00
   1   15    4     1     4    1.9740E+05 -3.1930E+04   2.2933E+05  0.000E+00  0.000E+00  0.000E+00  4.70575E+01  2.279E-01  2.000E+01  2.000E+04 -1.597E+00
   1   16    5     1     5    2.2933E+05 -3.3480E+04   2.6281E+05  0.000E+00  0.000E+00  0.000E+00  4.66006E+01  2.483E-01  2.000E+01  2.000E+04 -1.674E+00
   1   16    6     1     6    2.6281E+05 -2.9261E+04   2.9207E+05  0.000E+00  0.000E+00  0.000E+00  4.61418E+01  2.668E-01  2.000E+01  2.000E+04 -1.463E+00
   1   16    7     1     7    2.9207E+05 -2.9094E+04   3.2116E+05  0.000E+00  0.000E+00  0.000E+00  4.56811E+01  2.833E-01  2.000E+01  2.000E+04 -1.455E+00
   1   16    8     1     8    3.2116E+05 -2.9284E+04   3.5045E+05  0.000E+00  0.000E+00  0.000E+00  4.52197E+01  2.992E-01  2.000E+01  2.000E+04 -1.464E+00
   1   16    9     1     9    3.5045E+05 -2.9371E+04   3.7982E+05  0.000E+00  0.000E+00  0.000E+00  4.47578E+01  3.146E-01  2.000E+01  2.000E+04 -1.469E+00
   1   16   10     1    10    3.7982E+05 -2.9403E+04   4.0922E+05  0.000E+00  0.000E+00  0.000E+00  4.42955E+01  3.296E-01  2.000E+01  2.000E+04 -1.470E+00
   1   16   11     1    11    4.0922E+05 -3.0001E+04   4.3922E+05  0.000E+00  0.000E+00  0.000E+00  4.38329E+01  3.443E-01  2.000E+01  2.000E+04 -1.500E+00
   1   16   12     1    12    4.3922E+05 -3.5439E+04   4.7466E+05  0.000E+00  0.000E+00  0.000E+00  4.33713E+01  3.599E-01  2.000E+01  2.000E+04 -1.772E+00
   1   15   13     1    13    4.7466E+05 -3.4148E+04   5.0881E+05  0.000E+00  0.000E+00  0.000E+00  4.29102E+01  3.762E-01  2.000E+01  2.000E+04 -1.707E+00
   1   14   14     1    14    5.0881E+05 -3.4732E+04   5.4354E+05  0.000E+00  0.000E+00  0.000E+00  4.24486E+01  3.917E-01  2.000E+01  2.000E+04 -1.737E+00
   1   13   15     1    15    5.4354E+05 -3.6981E+04   5.8052E+05  0.000E+00  0.000E+00  0.000E+00  4.19871E+01  4.076E-01  2.000E+01  2.000E+04 -1.849E+00
   1   12   16     1    16    5.8052E+05 -4.3090E+04   6.2361E+05  0.000E+00  0.000E+00  0.000E+00  4.15270E+01  4.247E-01  2.000E+01  2.000E+04 -2.154E+00
   1   12   17     1    17    6.2361E+05 -3.3671E+04   6.5728E+05  0.000E+00  0.000E+00  0.000E+00  4.10658E+01  4.408E-01  2.000E+01  2.000E+04 -1.684E+00
   1   12   18     1    18    6.5728E+05 -3.2052E+04   6.8934E+05  0.000E+00  0.000E+00  0.000E+00  4.06019E+01  4.542E-01  2.000E+01  2.000E+04 -1.603E+00
   1   12   19     1    19    6.8934E+05 -3.6106E+04   7.2544E+05  0.000E+00  0.000E+00  0.000E+00  4.01383E+01  4.679E-01  2.000E+01  2.000E+04 -1.805E+00
   1   13   20     1    20    7.2544E+05 -2.6288E+04   7.5173E+05  0.000E+00  0.000E+00  0.000E+00  3.96733E+01  4.801E-01  2.000E+01  2.000E+04 -1.314E+00
   1   14   21     1    21    7.5173E+05 -1.9025E+04   7.7076E+05  0.000E+00  0.000E+00  0.000E+00  3.92048E+01  4.889E-01  2.000E+01  2.000E+04 -9.513E-01
   1   14   22     1    22    7.7076E+05 -1.4695E+03   7.7223E+05  0.000E+00  0.000E+00  0.000E+00  3.87315E+01  4.929E-01  2.000E+01  2.000E+04 -7.347E-02
   1    9   30     2     1    5.0000E+04 -2.6292E+04   7.6292E+04  0.000E+00  0.000E+00  0.000E+00  4.02583E+01  1.333E-01  2.000E+01  2.000E+04 -1.315E+00
   1    9   29     2     2    7.6292E+04 -2.8765E+04   1.0506E+05  0.000E+00  0.000E+00  0.000E+00  4.00406E+01  1.656E-01  2.000E+01  2.000E+04 -1.438E+00
   1    9   28     2     3    1.0506E+05 -3.3056E+04   1.3811E+05  0.000E+00  0.000E+00  0.000E+00  3.98225E+01  1.975E-01  2.000E+01  2.000E+04 -1.653E+00
   1    9   27     2     4    1.3811E+05 -4.7151E+04   1.8526E+05  0.000E+00  0.000E+00  0.000E+00  3.96093E+01  2.343E-01  2.000E+01  2.000E+04 -2.358E+00
   1   10   26     2     5    1.8526E+05 -3.3092E+04   2.1836E+05  0.000E+00  0.000E+00  0.000E+00  3.93926E+01  2.676E-01  2.000E+01  2.000E+04 -1.655E+00
   1   11   25     2     6    2.1836E+05 -2.4746E+04   2.4310E+05  0.000E+00  0.000E+00  0.000E+00  3.91650E+01  2.900E-01  2.000E+01  2.000E+04 -1.237E+00
   1   12   24     2     7    2.4310E+05 -1.8196E+04   2.6130E+05  0.000E+00  0.000E+00  0.000E+00  3.89309E+01  3.059E-01  2.000E+01  2.000E+04 -9.098E-01
   1   13   23     2     8    2.6130E+05 -1.2860E+04   2.7416E+05  0.000E+00  0.000E+00  0.000E+00  3.86921E+01  3.171E-01  2.000E+01  2.000E+04 -6.430E-01
   1   14   22     2     9    2.7416E+05 -7.1165E+03   2.8127E+05  0.000E+00  0.000E+00  0.000E+00  3.84491E+01  3.241E-01  2.000E+01  2.000E+04 -3.558E-01
   1   14   22     3     1    1.0535E+06 -1.5085E+04   1.0686E+06  0.000E+00  0.000E+00  0.000E+00  3.80507E+01  4.952E-01  2.000E+01  2.000E+04 -7.543E-01
   1   15   23     3     2    1.0686E+06 -2.2482E+04   1.0911E+06  0.000E+00  0.000E+00  0.000E+00  3.71671E+01  5.004E-01  2.000E+01  2.000E+04 -1.124E+00
   1   15   24     3     3    1.0911E+06 -1.8636E+04   1.1097E+06  0.000E+00  0.000E+00  0.000E+00  3.62839E+01  5.061E-01  2.000E+01  2.000E+04 -9.318E-01
   1   15   25     3     4    1.1097E+06 -1.8236E+04   1.1279E+06  0.000E+00  0.000E+00  0.000E+00  3.54000E+01  5.112E-01  2.000E+01  2.000E+04 -9.118E-01
   1   15   26     3     5    1.1279E+06 -2.0965E+04   1.1489E+06  0.000E+00  0.000E+00  0.000E+00  3.45165E+01  5.165E-01  2.000E+01  2.000E+04 -1.048E+00
   1   16   27     3     6    1.1489E+06 -2.7147E+04   1.1761E+06  0.000E+00  0.000E+00  0.000E+00  3.36341E+01  5.230E-01  2.000E+01  2.000E+04 -1.357E+00
   1   17   28     3     7    1.1761E+06 -3.3001E+04   1.2091E+06  0.000E+00  0.000E+00  0.000E+00  3.27533E+01  5.311E-01  2.000E+01  2.000E+04 -1.650E+00
   1   18   29     3     8    1.2091E+06 -4.1859E+04   1.2509E+06  0.000E+00  0.000E+00  0.000E+00  3.18744E+01  5.411E-01  2.000E+01  2.000E+04 -2.093E+00
   1   18   30     3     9    1.2509E+06 -3.9208E+04   1.2901E+06  0.000E+00  0.000E+00  0.000E+00  3.09961E+01  5.517E-01  2.000E+01  2.000E+04 -1.960E+00



1
              HEAD IN LAYER   1 AT END OF TIME STEP   1 IN STRESS PERIOD   11
  ---------------------------------------------------------------------------

          1      2      3      4      5      6      7      8      9     10
         11     12     13     14     15     16     17     18     19     20
         21     22     23     24     25     26     27     28     29     30
 .........................................................................
   1  ****** ****** ****** ****** ****** ****** ****** ****** ****** ******
      ****** ****** ****** ****** ****** ****** ****** ****** ****** ******
      ****** ****** ****** ****** ****** ****** ****** ****** ****** ******
   2  ****** ****** ****** ****** ****** ****** ****** ****** ****** ******
      ****** ****** ****** ****** ****** ****** ****** ****** ****** ******
      ****** ****** ****** ****** ****** ****** ****** ****** ****** ******
   3  ****** ****** ****** ****** ****** ****** ****** ****** ****** ******
      ****** ****** ****** ****** ****** ****** ****** ****** ****** ******
      ****** ****** ****** ****** ****** ****** ****** ****** ****** ******
   4  ****** ****** ****** ****** ****** ****** ****** ****** ****** ******
      ****** ****** ****** ****** ****** ****** ****** ****** ****** ******
      ****** ****** ****** ****** ****** ****** ****** ****** ****** ******
   5  ****** ****** ****** ****** ****** ****** ****** ****** ****** ******
      ****** ****** ****** ****** ****** ****** ****** ****** ****** ******
      ****** ****** ****** ****** ****** ****** ****** ****** ****** ******
   6  ****** ****** ****** ****** ****** ****** ****** ****** ****** ******
      ****** ****** ****** ****** ****** ****** ****** ****** ****** ******
      ****** ****** ****** ****** ****** ****** ****** ****** ****** ******
   7  ****** ****** ****** ****** ****** ****** ****** ****** ****** ******
      ****** ****** ****** ****** ****** ****** ****** ****** ****** ******
      ****** ****** ****** ****** ****** ****** ****** ****** ****** ******
   8  ****** ****** ****** ****** ****** ****** ****** ****** ****** ******
      ****** ****** ****** ****** ****** ****** ****** ****** ****** ******
      ****** ****** ****** ****** ****** ****** ****** ****** ****** ******
   9  ****** ****** ****** ****** ****** ****** ****** ****** ****** ******
      ****** ****** ****** ****** ****** ****** ****** ****** ****** ******
      ****** ****** ****** ****** ****** ****** ****** ****** ****** ******
  10  ****** ****** ****** ****** ****** ****** ****** ****** ****** ******
      ****** ****** ****** ****** ****** ****** ****** ****** ****** ******
      ****** ****** ****** ****** ****** ****** ****** ****** ****** ******
  11  ****** ****** ****** ****** ****** ****** ****** ****** ****** ******
      ****** ****** ****** ****** ****** ****** ****** ****** ****** ******
      ****** ****** ****** ****** ****** ****** ****** ****** ****** ******
  12  ****** ****** ****** ****** ****** ****** ****** ****** ****** ******
      ****** ****** ****** ****** ****** ****** ****** ****** ****** ******
      ****** ****** ****** ****** ****** ****** ****** ****** ****** ******
  13  ****** ****** ****** ****** ****** ****** ****** ****** ****** ******
      ****** ****** ****** ****** ****** ****** ****** ****** ****** ******
      ****** ****** ****** ****** ****** ****** ****** ****** ****** ******
  14  ****** ****** ****** ****** ****** ****** ****** ****** ****** ******
      ****** ****** ****** ****** ****** ****** ****** ****** ****** ******
      ****** ****** ****** ****** ****** ****** ****** ****** ****** ******
  15  ****** ****** ****** ****** ****** ****** ****** ****** ****** ******
      ****** ****** ****** ****** ****** ****** ****** ****** ****** ******
      ****** ****** ****** ****** ****** ****** ****** ****** ****** ******
  16  ****** ****** ****** ****** ****** ****** ****** ****** ****** ******
      ****** ****** ****** ****** ****** ****** ****** ****** ****** ******
      ****** ****** ****** ****** ****** ****** ****** ****** ****** ******
  17  ****** ****** ****** ****** ****** ****** ****** ****** ****** ******
      ****** ****** ****** ****** ****** ****** ****** ****** ****** ******
      ****** ****** ****** ****** ****** ****** ****** ****** ****** ******
  18  ****** ****** ****** ****** ****** ****** ****** ****** ****** ******
      ****** ****** ****** ****** ****** ****** ****** ****** ****** ******
      ****** ****** ****** ****** ****** ****** ****** ****** ****** ******
  19  ****** ****** ****** ****** ****** ****** ****** ****** ****** ******
      ****** ****** ****** ****** ****** ****** ****** ****** ****** ******
      ****** ****** ****** ****** ****** ****** ****** ****** ****** ******
  20  ****** ****** ****** ****** ****** ****** ****** ****** ****** ******
      ****** ****** ****** ****** ****** ****** ****** ****** ****** ******
      ****** ****** ****** ****** ****** ****** ****** ****** ****** ******
  21  ****** ****** ****** ****** ****** ****** ****** ****** ****** ******
      ****** ****** ****** ****** ****** ****** ****** ****** ****** ******
      ****** ****** ****** ****** ****** ****** ****** ****** ****** ******
  22  ****** ****** ****** ****** ****** ****** ****** ****** ****** ******
      ****** ****** ****** ****** ****** ****** ****** ****** ****** ******
      ****** ****** ****** ****** ****** ****** ****** ****** ****** ******
  23  ****** ****** ****** ****** ****** ****** ****** ****** ****** ******
      ****** ****** ****** ****** ****** ****** ****** ****** ****** ******
      ****** ****** ****** ****** ****** ****** ****** ****** ****** ******
  24  ****** ****** ****** ****** ****** ****** ****** ****** ****** ******
      ****** ****** ****** ****** ****** ****** ****** ****** ****** ******
      ****** ****** ****** ****** ****** ****** ****** ****** ****** ******
  25  ****** ****** ****** ****** ****** ****** ****** ****** ****** ******
      ****** ****** ****** ****** ****** ****** ****** ****** ****** ******
      ****** ****** ****** ****** ****** ****** ****** ****** ****** ******

 HEAD WILL BE SAVED ON UNIT   51 AT END OF TIME STEP    1, STRESS PERIOD   11
1
  VOLUMETRIC BUDGET FOR ENTIRE MODEL AT END OF TIME STEP    1, STRESS PERIOD  11
  ------------------------------------------------------------------------------

     CUMULATIVE VOLUMES      L**3       RATES FOR THIS TIME STEP      L**3/T
     ------------------                 ------------------------

           IN:                                      IN:
           ---                                      ---
             STORAGE =    20794924.0354               STORAGE =        2517.8845
       CONSTANT HEAD =  1227267121.9122         CONSTANT HEAD =     1267601.4768
               WELLS =           0.0000                 WELLS =           0.0000
            RECHARGE =    23901600.0000              RECHARGE =           0.0000
      STREAM LEAKAGE =           0.0000        STREAM LEAKAGE =           0.0000

            TOTAL IN =  1271963645.9476              TOTAL IN =     1270119.3613

          OUT:                                     OUT:
          ----                                     ----
             STORAGE =      726444.6460               STORAGE =           0.0000
       CONSTANT HEAD =           0.0000         CONSTANT HEAD =           0.0000
               WELLS =    96760274.0000                 WELLS =      130000.0000
            RECHARGE =           0.0000              RECHARGE =           0.0000
      STREAM LEAKAGE =  1174476938.4127        STREAM LEAKAGE =     1140119.4049

           TOTAL OUT =  1271963657.0587             TOTAL OUT =     1270119.4049

            IN - OUT =         -11.1111              IN - OUT =      -4.3689E-02

 PERCENT DISCREPANCY =          -0.00     PERCENT DISCREPANCY =          -0.00






         TIME SUMMARY AT END OF TIME STEP    1 IN STRESS PERIOD   11
                    SECONDS     MINUTES      HOURS       DAYS        YEARS
                    -----------------------------------------------------------
   TIME STEP LENGTH 7.86240E+06 1.31040E+05  2184.0      91.000     0.24914    
 STRESS PERIOD TIME 7.86240E+06 1.31040E+05  2184.0      91.000     0.24914    
         TOTAL TIME 8.67456E+07 1.44576E+06  24096.      1004.0      2.7488    
1
1
                            STRESS PERIOD NO.   12, LENGTH =   91.00000    
                            -----------------------------------------------

                              NUMBER OF TIME STEPS =     1

                               MULTIPLIER FOR DELT =     1.500

                            INITIAL TIME STEP SIZE =   91.00000    

 WELL NO.  LAYER   ROW   COL   STRESS RATE         
 --------------------------------------------------
      1      1     22     29     -0.3000E+05
      2      1     24     24       0.000    
      3      1     24     27     -0.5000E+05

      3 WELLS

                 RECHARGE =  1.000000E-03

 REUSING STREAM SEGMENT DATA FROM LAST STRESS PERIOD
 
 SOLVING FOR HEAD 


     6 CALLS TO PCG ROUTINE FOR TIME STEP   1 IN STRESS PERIOD   12
    22 TOTAL ITERATIONS

 OUTPUT CONTROL FOR STRESS PERIOD   12   TIME STEP    1
    SAVE BUDGET
    SAVE HEAD FOR ALL LAYERS
    PRINT HEAD FOR ALL LAYERS
 UBDSV2 SAVING "STREAMFLOW OUT  " ON UNIT  50 AT TIME STEP  1, STRESS PERIOD  12



 STREAM LISTING     PERIOD     12   STEP        1

 LAYER ROW COL. STREAM  RCH.  FLOW INTO     FLOW TO   FLOW OUT OF   OVRLND.     DIRECT     STREAM       STREAM     STREAM     STREAM   STREAMBED  STREAMBED
                SEG.NO.  NO.  STRM. RCH.    AQUIFER    STRM. RCH.    RUNOFF     PRECIP       ET          HEAD       DEPTH      WIDTH   CONDCTNC.   GRADIENT

   1   13    1     1     1    1.0000E+05 -2.7909E+04   1.2791E+05  0.000E+00  0.000E+00  0.000E+00  4.84178E+01  1.564E-01  2.000E+01  2.000E+04 -1.395E+00
   1   13    2     1     2    1.2791E+05 -3.7670E+04   1.6558E+05  0.000E+00  0.000E+00  0.000E+00  4.79662E+01  1.821E-01  2.000E+01  2.000E+04 -1.883E+00
   1   14    3     1     3    1.6558E+05 -3.3146E+04   1.9873E+05  0.000E+00  0.000E+00  0.000E+00  4.75141E+01  2.073E-01  2.000E+01  2.000E+04 -1.657E+00
   1   15    4     1     4    1.9873E+05 -3.2380E+04   2.3111E+05  0.000E+00  0.000E+00  0.000E+00  4.70585E+01  2.289E-01  2.000E+01  2.000E+04 -1.619E+00
   1   16    5     1     5    2.3111E+05 -3.3892E+04   2.6500E+05  0.000E+00  0.000E+00  0.000E+00  4.66018E+01  2.495E-01  2.000E+01  2.000E+04 -1.695E+00
   1   16    6     1     6    2.6500E+05 -2.9620E+04   2.9462E+05  0.000E+00  0.000E+00  0.000E+00  4.61432E+01  2.682E-01  2.000E+01  2.000E+04 -1.481E+00
   1   16    7     1     7    2.9462E+05 -2.9451E+04   3.2407E+05  0.000E+00  0.000E+00  0.000E+00  4.56826E+01  2.848E-01  2.000E+01  2.000E+04 -1.473E+00
   1   16    8     1     8    3.2407E+05 -2.9645E+04   3.5371E+05  0.000E+00  0.000E+00  0.000E+00  4.52213E+01  3.009E-01  2.000E+01  2.000E+04 -1.482E+00
   1   16    9     1     9    3.5371E+05 -2.9738E+04   3.8345E+05  0.000E+00  0.000E+00  0.000E+00  4.47596E+01  3.164E-01  2.000E+01  2.000E+04 -1.487E+00
   1   16   10     1    10    3.8345E+05 -2.9778E+04   4.1323E+05  0.000E+00  0.000E+00  0.000E+00  4.42974E+01  3.315E-01  2.000E+01  2.000E+04 -1.489E+00
   1   16   11     1    11    4.1323E+05 -3.0396E+04   4.4363E+05  0.000E+00  0.000E+00  0.000E+00  4.38349E+01  3.463E-01  2.000E+01  2.000E+04 -1.520E+00
   1   16   12     1    12    4.4363E+05 -3.5934E+04   4.7956E+05  0.000E+00  0.000E+00  0.000E+00  4.33735E+01  3.621E-01  2.000E+01  2.000E+04 -1.797E+00
   1   15   13     1    13    4.7956E+05 -3.4689E+04   5.1425E+05  0.000E+00  0.000E+00  0.000E+00  4.29126E+01  3.785E-01  2.000E+01  2.000E+04 -1.734E+00
   1   14   14     1    14    5.1425E+05 -3.5285E+04   5.4953E+05  0.000E+00  0.000E+00  0.000E+00  4.24511E+01  3.943E-01  2.000E+01  2.000E+04 -1.764E+00
   1   13   15     1    15    5.4953E+05 -3.7517E+04   5.8705E+05  0.000E+00  0.000E+00  0.000E+00  4.19898E+01  4.103E-01  2.000E+01  2.000E+04 -1.876E+00
   1   12   16     1    16    5.8705E+05 -4.3579E+04   6.3063E+05  0.000E+00  0.000E+00  0.000E+00  4.15299E+01  4.276E-01  2.000E+01  2.000E+04 -2.179E+00
   1   12   17     1    17    6.3063E+05 -3.4085E+04   6.6472E+05  0.000E+00  0.000E+00  0.000E+00  4.10687E+01  4.437E-01  2.000E+01  2.000E+04 -1.704E+00
   1   12   18     1    18    6.6472E+05 -3.2457E+04   6.9717E+05  0.000E+00  0.000E+00  0.000E+00  4.06050E+01  4.573E-01  2.000E+01  2.000E+04 -1.623E+00
   1   12   19     1    19    6.9717E+05 -3.6545E+04   7.3372E+05  0.000E+00  0.000E+00  0.000E+00  4.01415E+01  4.711E-01  2.000E+01  2.000E+04 -1.827E+00
   1   13   20     1    20    7.3372E+05 -2.6774E+04   7.6049E+05  0.000E+00  0.000E+00  0.000E+00  3.96766E+01  4.835E-01  2.000E+01  2.000E+04 -1.339E+00
   1   14   21     1    21    7.6049E+05 -1.9558E+04   7.8005E+05  0.000E+00  0.000E+00  0.000E+00  3.92083E+01  4.924E-01  2.000E+01  2.000E+04 -9.779E-01
   1   14   22     1    22    7.8005E+05 -1.6638E+03   7.8171E+05  0.000E+00  0.000E+00  0.000E+00  3.87351E+01  4.964E-01  2.000E+01  2.000E+04 -8.319E-02
   1    9   30     2     1    5.0000E+04 -2.6585E+04   7.6585E+04  0.000E+00  0.000E+00  0.000E+00  4.02585E+01  1.335E-01  2.000E+01  2.000E+04 -1.329E+00
   1    9   29     2     2    7.6585E+04 -2.9057E+04   1.0564E+05  0.000E+00  0.000E+00  0.000E+00  4.00411E+01  1.661E-01  2.000E+01  2.000E+04 -1.453E+00
   1    9   28     2     3    1.0564E+05 -3.3356E+04   1.3900E+05  0.000E+00  0.000E+00  0.000E+00  3.98232E+01  1.982E-01  2.000E+01  2.000E+04 -1.668E+00
   1    9   27     2     4    1.3900E+05 -4.7513E+04   1.8651E+05  0.000E+00  0.000E+00  0.000E+00  3.96102E+01  2.352E-01  2.000E+01  2.000E+04 -2.376E+00
   1   10   26     2     5    1.8651E+05 -3.3476E+04   2.1999E+05  0.000E+00  0.000E+00  0.000E+00  3.93938E+01  2.688E-01  2.000E+01  2.000E+04 -1.674E+00
   1   11   25     2     6    2.1999E+05 -2.5124E+04   2.4511E+05  0.000E+00  0.000E+00  0.000E+00  3.91664E+01  2.914E-01  2.000E+01  2.000E+04 -1.256E+00
   1   12   24     2     7    2.4511E+05 -1.8547E+04   2.6366E+05  0.000E+00  0.000E+00  0.000E+00  3.89325E+01  3.075E-01  2.000E+01  2.000E+04 -9.274E-01
   1   13   23     2     8    2.6366E+05 -1.3174E+04   2.7683E+05  0.000E+00  0.000E+00  0.000E+00  3.86939E+01  3.189E-01  2.000E+01  2.000E+04 -6.587E-01
   1   14   22     2     9    2.7683E+05 -7.3437E+03   2.8418E+05  0.000E+00  0.000E+00  0.000E+00  3.84511E+01  3.261E-01  2.000E+01  2.000E+04 -3.672E-01
   1   14   22     3     1    1.0659E+06 -1.5282E+04   1.0812E+06  0.000E+00  0.000E+00  0.000E+00  3.80542E+01  4.986E-01  2.000E+01  2.000E+04 -7.641E-01
   1   15   23     3     2    1.0812E+06 -2.3177E+04   1.1043E+06  0.000E+00  0.000E+00  0.000E+00  3.71706E+01  5.040E-01  2.000E+01  2.000E+04 -1.159E+00
   1   15   24     3     3    1.1043E+06 -1.9207E+04   1.1236E+06  0.000E+00  0.000E+00  0.000E+00  3.62876E+01  5.098E-01  2.000E+01  2.000E+04 -9.603E-01
   1   15   25     3     4    1.1236E+06 -1.8766E+04   1.1423E+06  0.000E+00  0.000E+00  0.000E+00  3.54039E+01  5.150E-01  2.000E+01  2.000E+04 -9.383E-01
   1   15   26     3     5    1.1423E+06 -2.1493E+04   1.1638E+06  0.000E+00  0.000E+00  0.000E+00  3.45205E+01  5.205E-01  2.000E+01  2.000E+04 -1.075E+00
   1   16   27     3     6    1.1638E+06 -2.7924E+04   1.1917E+06  0.000E+00  0.000E+00  0.000E+00  3.36383E+01  5.272E-01  2.000E+01  2.000E+04 -1.396E+00
   1   17   28     3     7    1.1917E+06 -3.3908E+04   1.2256E+06  0.000E+00  0.000E+00  0.000E+00  3.27576E+01  5.354E-01  2.000E+01  2.000E+04 -1.695E+00
   1   18   29     3     8    1.2256E+06 -4.2849E+04   1.2685E+06  0.000E+00  0.000E+00  0.000E+00  3.18789E+01  5.456E-01  2.000E+01  2.000E+04 -2.142E+00
   1   18   30     3     9    1.2685E+06 -3.9927E+04   1.3084E+06  0.000E+00  0.000E+00  0.000E+00  3.10008E+01  5.563E-01  2.000E+01  2.000E+04 -1.996E+00



1
              HEAD IN LAYER   1 AT END OF TIME STEP   1 IN STRESS PERIOD   12
  ---------------------------------------------------------------------------

          1      2      3      4      5      6      7      8      9     10
         11     12     13     14     15     16     17     18     19     20
         21     22     23     24     25     26     27     28     29     30
 .........................................................................
   1  ****** ****** ****** ****** ****** ****** ****** ****** ****** ******
      ****** ****** ****** ****** ****** ****** ****** ****** ****** ******
      ****** ****** ****** ****** ****** ****** ****** ****** ****** ******
   2  ****** ****** ****** ****** ****** ****** ****** ****** ****** ******
      ****** ****** ****** ****** ****** ****** ****** ****** ****** ******
      ****** ****** ****** ****** ****** ****** ****** ****** ****** ******
   3  ****** ****** ****** ****** ****** ****** ****** ****** ****** ******
      ****** ****** ****** ****** ****** ****** ****** ****** ****** ******
      ****** ****** ****** ****** ****** ****** ****** ****** ****** ******
   4  ****** ****** ****** ****** ****** ****** ****** ****** ****** ******
      ****** ****** ****** ****** ****** ****** ****** ****** ****** ******
      ****** ****** ****** ****** ****** ****** ****** ****** ****** ******
   5  ****** ****** ****** ****** ****** ****** ****** ****** ****** ******
      ****** ****** ****** ****** ****** ****** ****** ****** ****** ******
      ****** ****** ****** ****** ****** ****** ****** ****** ****** ******
   6  ****** ****** ****** ****** ****** ****** ****** ****** ****** ******
      ****** ****** ****** ****** ****** ****** ****** ****** ****** ******
      ****** ****** ****** ****** ****** ****** ****** ****** ****** ******
   7  ****** ****** ****** ****** ****** ****** ****** ****** ****** ******
      ****** ****** ****** ****** ****** ****** ****** ****** ****** ******
      ****** ****** ****** ****** ****** ****** ****** ****** ****** ******
   8  ****** ****** ****** ****** ****** ****** ****** ****** ****** ******
      ****** ****** ****** ****** ****** ****** ****** ****** ****** ******
      ****** ****** ****** ****** ****** ****** ****** ****** ****** ******
   9  ****** ****** ****** ****** ****** ****** ****** ****** ****** ******
      ****** ****** ****** ****** ****** ****** ****** ****** ****** ******
      ****** ****** ****** ****** ****** ****** ****** ****** ****** ******
  10  ****** ****** ****** ****** ****** ****** ****** ****** ****** ******
      ****** ****** ****** ****** ****** ****** ****** ****** ****** ******
      ****** ****** ****** ****** ****** ****** ****** ****** ****** ******
  11  ****** ****** ****** ****** ****** ****** ****** ****** ****** ******
      ****** ****** ****** ****** ****** ****** ****** ****** ****** ******
      ****** ****** ****** ****** ****** ****** ****** ****** ****** ******
  12  ****** ****** ****** ****** ****** ****** ****** ****** ****** ******
      ****** ****** ****** ****** ****** ****** ****** ****** ****** ******
      ****** ****** ****** ****** ****** ****** ****** ****** ****** ******
  13  ****** ****** ****** ****** ****** ****** ****** ****** ****** ******
      ****** ****** ****** ****** ****** ****** ****** ****** ****** ******
      ****** ****** ****** ****** ****** ****** ****** ****** ****** ******
  14  ****** ****** ****** ****** ****** ****** ****** ****** ****** ******
      ****** ****** ****** ****** ****** ****** ****** ****** ****** ******
      ****** ****** ****** ****** ****** ****** ****** ****** ****** ******
  15  ****** ****** ****** ****** ****** ****** ****** ****** ****** ******
      ****** ****** ****** ****** ****** ****** ****** ****** ****** ******
      ****** ****** ****** ****** ****** ****** ****** ****** ****** ******
  16  ****** ****** ****** ****** ****** ****** ****** ****** ****** ******
      ****** ****** ****** ****** ****** ****** ****** ****** ****** ******
      ****** ****** ****** ****** ****** ****** ****** ****** ****** ******
  17  ****** ****** ****** ****** ****** ****** ****** ****** ****** ******
      ****** ****** ****** ****** ****** ****** ****** ****** ****** ******
      ****** ****** ****** ****** ****** ****** ****** ****** ****** ******
  18  ****** ****** ****** ****** ****** ****** ****** ****** ****** ******
      ****** ****** ****** ****** ****** ****** ****** ****** ****** ******
      ****** ****** ****** ****** ****** ****** ****** ****** ****** ******
  19  ****** ****** ****** ****** ****** ****** ****** ****** ****** ******
      ****** ****** ****** ****** ****** ****** ****** ****** ****** ******
      ****** ****** ****** ****** ****** ****** ****** ****** ****** ******
  20  ****** ****** ****** ****** ****** ****** ****** ****** ****** ******
      ****** ****** ****** ****** ****** ****** ****** ****** ****** ******
      ****** ****** ****** ****** ****** ****** ****** ****** ****** ******
  21  ****** ****** ****** ****** ****** ****** ****** ****** ****** ******
      ****** ****** ****** ****** ****** ****** ****** ****** ****** ******
      ****** ****** ****** ****** ****** ****** ****** ****** ****** ******
  22  ****** ****** ****** ****** ****** ****** ****** ****** ****** ******
      ****** ****** ****** ****** ****** ****** ****** ****** ****** ******
      ****** ****** ****** ****** ****** ****** ****** ****** ****** ******
  23  ****** ****** ****** ****** ****** ****** ****** ****** ****** ******
      ****** ****** ****** ****** ****** ****** ****** ****** ****** ******
      ****** ****** ****** ****** ****** ****** ****** ****** ****** ******
  24  ****** ****** ****** ****** ****** ****** ****** ****** ****** ******
      ****** ****** ****** ****** ****** ****** ****** ****** ****** ******
      ****** ****** ****** ****** ****** ****** ****** ****** ****** ******
  25  ****** ****** ****** ****** ****** ****** ****** ****** ****** ******
      ****** ****** ****** ****** ****** ****** ****** ****** ****** ******
      ****** ****** ****** ****** ****** ****** ****** ****** ****** ******

 HEAD WILL BE SAVED ON UNIT   51 AT END OF TIME STEP    1, STRESS PERIOD   12
1
  VOLUMETRIC BUDGET FOR ENTIRE MODEL AT END OF TIME STEP    1, STRESS PERIOD  12
  ------------------------------------------------------------------------------

     CUMULATIVE VOLUMES      L**3       RATES FOR THIS TIME STEP      L**3/T
     ------------------                 ------------------------

           IN:                                      IN:
           ---                                      ---
             STORAGE =    20794924.0354               STORAGE =           0.0000
       CONSTANT HEAD =  1337644823.6646         CONSTANT HEAD =     1212941.7775
               WELLS =           0.0000                 WELLS =           0.0000
            RECHARGE =    26413200.0000              RECHARGE =       27600.0000
      STREAM LEAKAGE =           0.0000        STREAM LEAKAGE =           0.0000

            TOTAL IN =  1384852947.7000              TOTAL IN =     1240541.7775

          OUT:                                     OUT:
          ----                                     ----
             STORAGE =      919264.2338               STORAGE =        2118.8966
       CONSTANT HEAD =           0.0000         CONSTANT HEAD =           0.0000
               WELLS =   104040274.0000                 WELLS =       80000.0000
            RECHARGE =           0.0000              RECHARGE =           0.0000
      STREAM LEAKAGE =  1279893418.0951        STREAM LEAKAGE =     1158422.8537

           TOTAL OUT =  1384852956.3289             TOTAL OUT =     1240541.7502

            IN - OUT =          -8.6289              IN - OUT =       2.7277E-02

 PERCENT DISCREPANCY =          -0.00     PERCENT DISCREPANCY =           0.00






         TIME SUMMARY AT END OF TIME STEP    1 IN STRESS PERIOD   12
                    SECONDS     MINUTES      HOURS       DAYS        YEARS
                    -----------------------------------------------------------
   TIME STEP LENGTH 7.86240E+06 1.31040E+05  2184.0      91.000     0.24914    
 STRESS PERIOD TIME 7.86240E+06 1.31040E+05  2184.0      91.000     0.24914    
         TOTAL TIME 9.46080E+07 1.57680E+06  26280.      1095.0      2.9979    
1

 Run end date and time (yyyy/mm/dd hh:mm:ss): 2018/10/01 15:43:35
 Elapsed run time:  0.052 Seconds

